[TITLE]


Exported by WaterDesk 5.0.0

[JUNCTIONS]
;ID                 Elev            Demand          Pattern         
 J_0_0              3               0.3                                 ;
 J_0_1              3               0.3                                 ;
 J_0_2              3               0.3                                 ;
 J_0_3              3               0.3                                 ;
 J_0_4              3               0.3                                 ;
 J_0_5              3               0.3                                 ;
 J_0_6              3               0.3                                 ;
 J_0_7              3               0.3                                 ;
 J_0_8              3               0.3                                 ;
 J_0_9              3               0.3                                 ;
 J_0_10             3               0.3                                 ;
 J_0_11             3               0.3                                 ;
 J_0_12             3               0.3                                 ;
 J_0_13             3               0.3                                 ;
 J_0_14             3               0.3                                 ;
 J_0_15             3               0.3                                 ;
 J_0_16             3               0.3                                 ;
 J_0_17             3               0.3                                 ;
 J_0_18             3               0.3                                 ;
 J_0_19             3               0.3                                 ;
 J_0_20             3               0.3                                 ;
 J_0_21             3               0.3                                 ;
 J_0_22             3               0.3                                 ;
 J_0_23             3               0.3                                 ;
 J_0_24             3               0.3                                 ;
 J_0_25             3               0.3                                 ;
 J_0_26             3               0.3                                 ;
 J_0_27             3               0.3                                 ;
 J_0_28             3               0.3                                 ;
 J_0_29             3               0.3                                 ;
 J_0_30             3               0.3                                 ;
 J_0_31             3               0.3                                 ;
 J_0_32             3               0.3                                 ;
 J_0_33             3               0.3                                 ;
 J_0_34             3               0.3                                 ;
 J_0_35             3               0.3                                 ;
 J_0_36             3               0.3                                 ;
 J_0_37             3               0.3                                 ;
 J_0_38             3               0.3                                 ;
 J_0_39             3               0.3                                 ;
 J_0_40             3               0.3                                 ;
 J_0_41             3               0.3                                 ;
 J_0_42             3               0.3                                 ;
 J_0_43             3               0.3                                 ;
 J_0_44             3               0.3                                 ;
 J_0_45             3               0.3                                 ;
 J_0_46             3               0.3                                 ;
 J_0_47             3               0.3                                 ;
 J_0_48             3               0.3                                 ;
 J_0_49             3               0.3                                 ;
 J_0_50             3               0.3                                 ;
 J_0_51             3               0.3                                 ;
 J_0_52             3               0.3                                 ;
 J_0_53             3               0.3                                 ;
 J_0_54             3               0.3                                 ;
 J_0_55             3               0.3                                 ;
 J_0_56             3               0.3                                 ;
 J_0_57             3               0.3                                 ;
 J_0_58             3               0.3                                 ;
 J_0_59             3               0.3                                 ;
 J_0_60             3               0.3                                 ;
 J_0_61             3               0.3                                 ;
 J_0_62             3               0.3                                 ;
 J_0_63             3               0.3                                 ;
 J_0_64             3               0.3                                 ;
 J_0_65             3               0.3                                 ;
 J_0_66             3               0.3                                 ;
 J_0_67             3               0.3                                 ;
 J_0_68             3               0.3                                 ;
 J_0_69             3               0.3                                 ;
 J_0_70             3               0.3                                 ;
 J_0_71             3               0.3                                 ;
 J_0_72             3               0.3                                 ;
 J_0_73             3               0.3                                 ;
 J_0_74             3               0.3                                 ;
 J_0_75             3               0.3                                 ;
 J_0_76             3               0.3                                 ;
 J_0_77             3               0.3                                 ;
 J_0_78             3               0.3                                 ;
 J_0_79             3               0.3                                 ;
 J_0_80             3               0.3                                 ;
 J_0_81             3               0.3                                 ;
 J_0_82             3               0.3                                 ;
 J_0_83             3               0.3                                 ;
 J_0_84             3               0.3                                 ;
 J_0_85             3               0.3                                 ;
 J_0_86             3               0.3                                 ;
 J_0_87             3               0.3                                 ;
 J_0_88             3               0.3                                 ;
 J_0_89             3               0.3                                 ;
 J_0_90             3               0.3                                 ;
 J_0_91             3               0.3                                 ;
 J_0_92             3               0.3                                 ;
 J_0_93             3               0.3                                 ;
 J_0_94             3               0.3                                 ;
 J_0_95             3               0.3                                 ;
 J_0_96             3               0.3                                 ;
 J_0_97             3               0.3                                 ;
 J_0_98             3               0.3                                 ;
 J_0_99             3               0.3                                 ;
 J_1_0              3               0.3                                 ;
 J_1_1              3               0.3                                 ;
 J_1_2              3               0.3                                 ;
 J_1_3              3               0.3                                 ;
 J_1_4              3               0.3                                 ;
 J_1_5              3               0.3                                 ;
 J_1_6              3               0.3                                 ;
 J_1_7              3               0.3                                 ;
 J_1_8              3               0.3                                 ;
 J_1_9              3               0.3                                 ;
 J_1_10             3               0.3                                 ;
 J_1_11             3               0.3                                 ;
 J_1_12             3               0.3                                 ;
 J_1_13             3               0.3                                 ;
 J_1_14             3               0.3                                 ;
 J_1_15             3               0.3                                 ;
 J_1_16             3               0.3                                 ;
 J_1_17             3               0.3                                 ;
 J_1_18             3               0.3                                 ;
 J_1_19             3               0.3                                 ;
 J_1_20             3               0.3                                 ;
 J_1_21             3               0.3                                 ;
 J_1_22             3               0.3                                 ;
 J_1_23             3               0.3                                 ;
 J_1_24             3               0.3                                 ;
 J_1_25             3               0.3                                 ;
 J_1_26             3               0.3                                 ;
 J_1_27             3               0.3                                 ;
 J_1_28             3               0.3                                 ;
 J_1_29             3               0.3                                 ;
 J_1_30             3               0.3                                 ;
 J_1_31             3               0.3                                 ;
 J_1_32             3               0.3                                 ;
 J_1_33             3               0.3                                 ;
 J_1_34             3               0.3                                 ;
 J_1_35             3               0.3                                 ;
 J_1_36             3               0.3                                 ;
 J_1_37             3               0.3                                 ;
 J_1_38             3               0.3                                 ;
 J_1_39             3               0.3                                 ;
 J_1_40             3               0.3                                 ;
 J_1_41             3               0.3                                 ;
 J_1_42             3               0.3                                 ;
 J_1_43             3               0.3                                 ;
 J_1_44             3               0.3                                 ;
 J_1_45             3               0.3                                 ;
 J_1_46             3               0.3                                 ;
 J_1_47             3               0.3                                 ;
 J_1_48             3               0.3                                 ;
 J_1_49             3               0.3                                 ;
 J_1_50             3               0.3                                 ;
 J_1_51             3               0.3                                 ;
 J_1_52             3               0.3                                 ;
 J_1_53             3               0.3                                 ;
 J_1_54             3               0.3                                 ;
 J_1_55             3               0.3                                 ;
 J_1_56             3               0.3                                 ;
 J_1_57             3               0.3                                 ;
 J_1_58             3               0.3                                 ;
 J_1_59             3               0.3                                 ;
 J_1_60             3               0.3                                 ;
 J_1_61             3               0.3                                 ;
 J_1_62             3               0.3                                 ;
 J_1_63             3               0.3                                 ;
 J_1_64             3               0.3                                 ;
 J_1_65             3               0.3                                 ;
 J_1_66             3               0.3                                 ;
 J_1_67             3               0.3                                 ;
 J_1_68             3               0.3                                 ;
 J_1_69             3               0.3                                 ;
 J_1_70             3               0.3                                 ;
 J_1_71             3               0.3                                 ;
 J_1_72             3               0.3                                 ;
 J_1_73             3               0.3                                 ;
 J_1_74             3               0.3                                 ;
 J_1_75             3               0.3                                 ;
 J_1_76             3               0.3                                 ;
 J_1_77             3               0.3                                 ;
 J_1_78             3               0.3                                 ;
 J_1_79             3               0.3                                 ;
 J_1_80             3               0.3                                 ;
 J_1_81             3               0.3                                 ;
 J_1_82             3               0.3                                 ;
 J_1_83             3               0.3                                 ;
 J_1_84             3               0.3                                 ;
 J_1_85             3               0.3                                 ;
 J_1_86             3               0.3                                 ;
 J_1_87             3               0.3                                 ;
 J_1_88             3               0.3                                 ;
 J_1_89             3               0.3                                 ;
 J_1_90             3               0.3                                 ;
 J_1_91             3               0.3                                 ;
 J_1_92             3               0.3                                 ;
 J_1_93             3               0.3                                 ;
 J_1_94             3               0.3                                 ;
 J_1_95             3               0.3                                 ;
 J_1_96             3               0.3                                 ;
 J_1_97             3               0.3                                 ;
 J_1_98             3               0.3                                 ;
 J_1_99             3               0.3                                 ;
 J_2_0              3               0.3                                 ;
 J_2_1              3               0.3                                 ;
 J_2_2              3               0.3                                 ;
 J_2_3              3               0.3                                 ;
 J_2_4              3               0.3                                 ;
 J_2_5              3               0.3                                 ;
 J_2_6              3               0.3                                 ;
 J_2_7              3               0.3                                 ;
 J_2_8              3               0.3                                 ;
 J_2_9              3               0.3                                 ;
 J_2_10             3               0.3                                 ;
 J_2_11             3               0.3                                 ;
 J_2_12             3               0.3                                 ;
 J_2_13             3               0.3                                 ;
 J_2_14             3               0.3                                 ;
 J_2_15             3               0.3                                 ;
 J_2_16             3               0.3                                 ;
 J_2_17             3               0.3                                 ;
 J_2_18             3               0.3                                 ;
 J_2_19             3               0.3                                 ;
 J_2_20             3               0.3                                 ;
 J_2_21             3               0.3                                 ;
 J_2_22             3               0.3                                 ;
 J_2_23             3               0.3                                 ;
 J_2_24             3               0.3                                 ;
 J_2_25             3               0.3                                 ;
 J_2_26             3               0.3                                 ;
 J_2_27             3               0.3                                 ;
 J_2_28             3               0.3                                 ;
 J_2_29             3               0.3                                 ;
 J_2_30             3               0.3                                 ;
 J_2_31             3               0.3                                 ;
 J_2_32             3               0.3                                 ;
 J_2_33             3               0.3                                 ;
 J_2_34             3               0.3                                 ;
 J_2_35             3               0.3                                 ;
 J_2_36             3               0.3                                 ;
 J_2_37             3               0.3                                 ;
 J_2_38             3               0.3                                 ;
 J_2_39             3               0.3                                 ;
 J_2_40             3               0.3                                 ;
 J_2_41             3               0.3                                 ;
 J_2_42             3               0.3                                 ;
 J_2_43             3               0.3                                 ;
 J_2_44             3               0.3                                 ;
 J_2_45             3               0.3                                 ;
 J_2_46             3               0.3                                 ;
 J_2_47             3               0.3                                 ;
 J_2_48             3               0.3                                 ;
 J_2_49             3               0.3                                 ;
 J_2_50             3               0.3                                 ;
 J_2_51             3               0.3                                 ;
 J_2_52             3               0.3                                 ;
 J_2_53             3               0.3                                 ;
 J_2_54             3               0.3                                 ;
 J_2_55             3               0.3                                 ;
 J_2_56             3               0.3                                 ;
 J_2_57             3               0.3                                 ;
 J_2_58             3               0.3                                 ;
 J_2_59             3               0.3                                 ;
 J_2_60             3               0.3                                 ;
 J_2_61             3               0.3                                 ;
 J_2_62             3               0.3                                 ;
 J_2_63             3               0.3                                 ;
 J_2_64             3               0.3                                 ;
 J_2_65             3               0.3                                 ;
 J_2_66             3               0.3                                 ;
 J_2_67             3               0.3                                 ;
 J_2_68             3               0.3                                 ;
 J_2_69             3               0.3                                 ;
 J_2_70             3               0.3                                 ;
 J_2_71             3               0.3                                 ;
 J_2_72             3               0.3                                 ;
 J_2_73             3               0.3                                 ;
 J_2_74             3               0.3                                 ;
 J_2_75             3               0.3                                 ;
 J_2_76             3               0.3                                 ;
 J_2_77             3               0.3                                 ;
 J_2_78             3               0.3                                 ;
 J_2_79             3               0.3                                 ;
 J_2_80             3               0.3                                 ;
 J_2_81             3               0.3                                 ;
 J_2_82             3               0.3                                 ;
 J_2_83             3               0.3                                 ;
 J_2_84             3               0.3                                 ;
 J_2_85             3               0.3                                 ;
 J_2_86             3               0.3                                 ;
 J_2_87             3               0.3                                 ;
 J_2_88             3               0.3                                 ;
 J_2_89             3               0.3                                 ;
 J_2_90             3               0.3                                 ;
 J_2_91             3               0.3                                 ;
 J_2_92             3               0.3                                 ;
 J_2_93             3               0.3                                 ;
 J_2_94             3               0.3                                 ;
 J_2_95             3               0.3                                 ;
 J_2_96             3               0.3                                 ;
 J_2_97             3               0.3                                 ;
 J_2_98             3               0.3                                 ;
 J_2_99             3               0.3                                 ;
 J_3_0              3               0.3                                 ;
 J_3_1              3               0.3                                 ;
 J_3_2              3               0.3                                 ;
 J_3_3              3               0.3                                 ;
 J_3_4              3               0.3                                 ;
 J_3_5              3               0.3                                 ;
 J_3_6              3               0.3                                 ;
 J_3_7              3               0.3                                 ;
 J_3_8              3               0.3                                 ;
 J_3_9              3               0.3                                 ;
 J_3_10             3               0.3                                 ;
 J_3_11             3               0.3                                 ;
 J_3_12             3               0.3                                 ;
 J_3_13             3               0.3                                 ;
 J_3_14             3               0.3                                 ;
 J_3_15             3               0.3                                 ;
 J_3_16             3               0.3                                 ;
 J_3_17             3               0.3                                 ;
 J_3_18             3               0.3                                 ;
 J_3_19             3               0.3                                 ;
 J_3_20             3               0.3                                 ;
 J_3_21             3               0.3                                 ;
 J_3_22             3               0.3                                 ;
 J_3_23             3               0.3                                 ;
 J_3_24             3               0.3                                 ;
 J_3_25             3               0.3                                 ;
 J_3_26             3               0.3                                 ;
 J_3_27             3               0.3                                 ;
 J_3_28             3               0.3                                 ;
 J_3_29             3               0.3                                 ;
 J_3_30             3               0.3                                 ;
 J_3_31             3               0.3                                 ;
 J_3_32             3               0.3                                 ;
 J_3_33             3               0.3                                 ;
 J_3_34             3               0.3                                 ;
 J_3_35             3               0.3                                 ;
 J_3_36             3               0.3                                 ;
 J_3_37             3               0.3                                 ;
 J_3_38             3               0.3                                 ;
 J_3_39             3               0.3                                 ;
 J_3_40             3               0.3                                 ;
 J_3_41             3               0.3                                 ;
 J_3_42             3               0.3                                 ;
 J_3_43             3               0.3                                 ;
 J_3_44             3               0.3                                 ;
 J_3_45             3               0.3                                 ;
 J_3_46             3               0.3                                 ;
 J_3_47             3               0.3                                 ;
 J_3_48             3               0.3                                 ;
 J_3_49             3               0.3                                 ;
 J_3_50             3               0.3                                 ;
 J_3_51             3               0.3                                 ;
 J_3_52             3               0.3                                 ;
 J_3_53             3               0.3                                 ;
 J_3_54             3               0.3                                 ;
 J_3_55             3               0.3                                 ;
 J_3_56             3               0.3                                 ;
 J_3_57             3               0.3                                 ;
 J_3_58             3               0.3                                 ;
 J_3_59             3               0.3                                 ;
 J_3_60             3               0.3                                 ;
 J_3_61             3               0.3                                 ;
 J_3_62             3               0.3                                 ;
 J_3_63             3               0.3                                 ;
 J_3_64             3               0.3                                 ;
 J_3_65             3               0.3                                 ;
 J_3_66             3               0.3                                 ;
 J_3_67             3               0.3                                 ;
 J_3_68             3               0.3                                 ;
 J_3_69             3               0.3                                 ;
 J_3_70             3               0.3                                 ;
 J_3_71             3               0.3                                 ;
 J_3_72             3               0.3                                 ;
 J_3_73             3               0.3                                 ;
 J_3_74             3               0.3                                 ;
 J_3_75             3               0.3                                 ;
 J_3_76             3               0.3                                 ;
 J_3_77             3               0.3                                 ;
 J_3_78             3               0.3                                 ;
 J_3_79             3               0.3                                 ;
 J_3_80             3               0.3                                 ;
 J_3_81             3               0.3                                 ;
 J_3_82             3               0.3                                 ;
 J_3_83             3               0.3                                 ;
 J_3_84             3               0.3                                 ;
 J_3_85             3               0.3                                 ;
 J_3_86             3               0.3                                 ;
 J_3_87             3               0.3                                 ;
 J_3_88             3               0.3                                 ;
 J_3_89             3               0.3                                 ;
 J_3_90             3               0.3                                 ;
 J_3_91             3               0.3                                 ;
 J_3_92             3               0.3                                 ;
 J_3_93             3               0.3                                 ;
 J_3_94             3               0.3                                 ;
 J_3_95             3               0.3                                 ;
 J_3_96             3               0.3                                 ;
 J_3_97             3               0.3                                 ;