[TITLE]
Exported by WaterDesk 5.0.0


Exported by WaterDesk 5.0.0

[JUNCTIONS]
;ID                 Elev            Demand          Pattern         
 J_0_0              3               0.3                                 ;
 J_0_1              3               0.3                                 ;
 J_0_2              3               0.3                                 ;
 J_0_3              3               0.3                                 ;
 J_0_4              3               0.3                                 ;
 J_0_5              3               0.3                                 ;
 J_0_6              3               0.3                                 ;
 J_0_7              3               0.3                                 ;
 J_0_8              3               0.3                                 ;
 J_0_9              3               0.3                                 ;
 J_0_10             3               0.3                                 ;
 J_0_11             3               0.3                                 ;
 J_0_12             3               0.3                                 ;
 J_0_13             3               0.3                                 ;
 J_0_14             3               0.3                                 ;
 J_0_15             3               0.3                                 ;
 J_0_16             3               0.3                                 ;
 J_0_17             3               0.3                                 ;
 J_0_18             3               0.3                                 ;
 J_0_19             3               0.3                                 ;
 J_1_0              3               0.3                                 ;
 J_1_1              3               0.3                                 ;
 J_1_2              3               0.3                                 ;
 J_1_3              3               0.3                                 ;
 J_1_4              3               0.3                                 ;
 J_1_5              3               0.3                                 ;
 J_1_6              3               0.3                                 ;
 J_1_7              3               0.3                                 ;
 J_1_8              3               0.3                                 ;
 J_1_9              3               0.3                                 ;
 J_1_10             3               0.3                                 ;
 J_1_11             3               0.3                                 ;
 J_1_12             3               0.3                                 ;
 J_1_13             3               0.3                                 ;
 J_1_14             3               0.3                                 ;
 J_1_15             3               0.3                                 ;
 J_1_16             3               0.3                                 ;
 J_1_17             3               0.3                                 ;
 J_1_18             3               0.3                                 ;
 J_1_19             3               0.3                                 ;
 J_2_0              3               0.3                                 ;
 J_2_1              3               0.3                                 ;
 J_2_2              3               0.3                                 ;
 J_2_3              3               0.3                                 ;
 J_2_4              3               0.3                                 ;
 J_2_5              3               0.3                                 ;
 J_2_6              3               0.3                                 ;
 J_2_7              3               0.3                                 ;
 J_2_8              3               0.3                                 ;
 J_2_9              3               0.3                                 ;
 J_2_10             3               0.3                                 ;
 J_2_11             3               0.3                                 ;
 J_2_12             3               0.3                                 ;
 J_2_13             3               0.3                                 ;
 J_2_14             3               0.3                                 ;
 J_2_15             3               0.3                                 ;
 J_2_16             3               0.3                                 ;
 J_2_17             3               0.3                                 ;
 J_2_18             3               0.3                                 ;
 J_2_19             3               0.3                                 ;
 J_3_0              3               0.3                                 ;
 J_3_1              3               0.3                                 ;
 J_3_2              3               0.3                                 ;
 J_3_3              3               0.3                                 ;
 J_3_4              3               0.3                                 ;
 J_3_5              3               0.3                                 ;
 J_3_6              3               0.3                                 ;
 J_3_7              3               0.3                                 ;
 J_3_8              3               0.3                                 ;
 J_3_9              3               0.3                                 ;
 J_3_10             3               0.3                                 ;
 J_3_11             3               0.3                                 ;
 J_3_12             3               0.3                                 ;
 J_3_13             3               0.3                                 ;
 J_3_14             3               0.3                                 ;
 J_3_15             3               0.3                                 ;
 J_3_16             3               0.3                                 ;
 J_3_17             3               0.3                                 ;
 J_3_18             3               0.3                                 ;
 J_3_19             3               0.3                                 ;
 J_4_0              3               0.3                                 ;
 J_4_1              3               0.3                                 ;
 J_4_2              3               0.3                                 ;
 J_4_3              3               0.3                                 ;
 J_4_4              3               0.3                                 ;
 J_4_5              3               0.3                                 ;
 J_4_6              3               0.3                                 ;
 J_4_7              3               0.3                                 ;
 J_4_8              3               0.3                                 ;
 J_4_9              3               0.3                                 ;
 J_4_10             3               0.3                                 ;
 J_4_11             3               0.3                                 ;
 J_4_12             3               0.3                                 ;
 J_4_13             3               0.3                                 ;
 J_4_14             3               0.3                                 ;
 J_4_15             3               0.3                                 ;
 J_4_16             3               0.3                                 ;
 J_4_17             3               0.3                                 ;
 J_4_18             3               0.3                                 ;
 J_4_19             3               0.3                                 ;
 J_5_0              3               0.3                                 ;
 J_5_1              3               0.3                                 ;
 J_5_2              3               0.3                                 ;
 J_5_3              3               0.3                                 ;
 J_5_4              3               0.3                                 ;
 J_5_5              3               0.3                                 ;
 J_5_6              3               0.3                                 ;
 J_5_7              3               0.3                                 ;
 J_5_8              3               0.3                                 ;
 J_5_9              3               0.3                                 ;
 J_5_10             3               0.3                                 ;
 J_5_11             3               0.3                                 ;
 J_5_12             3               0.3                                 ;
 J_5_13             3               0.3                                 ;
 J_5_14             3               0.3                                 ;
 J_5_15             3               0.3                                 ;
 J_5_16             3               0.3                                 ;
 J_5_17             3               0.3                                 ;
 J_5_18             3               0.3                                 ;
 J_5_19             3               0.3                                 ;
 J_6_0              3               0.3                                 ;
 J_6_1              3               0.3                                 ;
 J_6_2              3               0.3                                 ;
 J_6_3              3               0.3                                 ;
 J_6_4              3               0.3                                 ;
 J_6_5              3               0.3                                 ;
 J_6_6              3               0.3                                 ;
 J_6_7              3               0.3                                 ;
 J_6_8              3               0.3                                 ;
 J_6_9              3               0.3                                 ;
 J_6_10             3               0.3                                 ;
 J_6_11             3               0.3                                 ;
 J_6_12             3               0.3                                 ;
 J_6_13             3               0.3                                 ;
 J_6_14             3               0.3                                 ;
 J_6_15             3               0.3                                 ;
 J_6_16             3               0.3                                 ;
 J_6_17             3               0.3                                 ;
 J_6_18             3               0.3                                 ;
 J_6_19             3               0.3                                 ;
 J_7_0              3               0.3                                 ;
 J_7_1              3               0.3                                 ;
 J_7_2              3               0.3                                 ;
 J_7_3              3               0.3                                 ;
 J_7_4              3               0.3                                 ;
 J_7_5              3               0.3                                 ;
 J_7_6              3               0.3                                 ;
 J_7_7              3               0.3                                 ;
 J_7_8              3               0.3                                 ;
 J_7_9              3               0.3                                 ;
 J_7_10             3               0.3                                 ;
 J_7_11             3               0.3                                 ;
 J_7_12             3               0.3                                 ;
 J_7_13             3               0.3                                 ;
 J_7_14             3               0.3                                 ;
 J_7_15             3               0.3                                 ;
 J_7_16             3               0.3                                 ;
 J_7_17             3               0.3                                 ;
 J_7_18             3               0.3                                 ;
 J_7_19             3               0.3                                 ;
 J_8_0              3               0.3                                 ;
 J_8_1              3               0.3                                 ;
 J_8_2              3               0.3                                 ;
 J_8_3              3               0.3                                 ;
 J_8_4              3               0.3                                 ;
 J_8_5              3               0.3                                 ;
 J_8_6              3               0.3                                 ;
 J_8_7              3               0.3                                 ;
 J_8_8              3               0.3                                 ;
 J_8_9              3               0.3                                 ;
 J_8_10             3               0.3                                 ;
 J_8_11             3               0.3                                 ;
 J_8_12             3               0.3                                 ;
 J_8_13             3               0.3                                 ;
 J_8_14             3               0.3                                 ;
 J_8_15             3               0.3                                 ;
 J_8_16             3               0.3                                 ;
 J_8_17             3               0.3                                 ;
 J_8_18             3               0.3                                 ;
 J_8_19             3               0.3                                 ;
 J_9_0              3               0.3                                 ;
 J_9_1              3               0.3                                 ;
 J_9_2              3               0.3                                 ;
 J_9_3              3               0.3                                 ;
 J_9_4              3               0.3                                 ;
 J_9_5              3               0.3                                 ;
 J_9_6              3               0.3                                 ;
 J_9_7              3               0.3                                 ;
 J_9_8              3               0.3                                 ;
 J_9_9              3               0.3                                 ;
 J_9_10             3               0.3                                 ;
 J_9_11             3               0.3                                 ;
 J_9_12             3               0.3                                 ;
 J_9_13             3               0.3                                 ;
 J_9_14             3               0.3                                 ;
 J_9_15             3               0.3                                 ;
 J_9_16             3               0.3                                 ;
 J_9_17             3               0.3                                 ;
 J_9_18             3               0.3                                 ;
 J_9_19             3               0.3                                 ;
 J_10_0             3               0.3                                 ;
 J_10_1             3               0.3                                 ;
 J_10_2             3               0.3                                 ;
 J_10_3             3               0.3                                 ;
 J_10_4             3               0.3                                 ;
 J_10_5             3               0.3                                 ;
 J_10_6             3               0.3                                 ;
 J_10_7             3               0.3                                 ;
 J_10_8             3               0.3                                 ;
 J_10_9             3               0.3                                 ;
 J_10_10            3               0.3                                 ;
 J_10_11            3               0.3                                 ;
 J_10_12            3               0.3                                 ;
 J_10_13            3               0.3                                 ;
 J_10_14            3               0.3                                 ;
 J_10_15            3               0.3                                 ;
 J_10_16            3               0.3                                 ;
 J_10_17            3               0.3                                 ;
 J_10_18            3               0.3                                 ;
 J_10_19            3               0.3                                 ;
 J_11_0             3               0.3                                 ;
 J_11_1             3               0.3                                 ;
 J_11_2             3               0.3                                 ;
 J_11_3             3               0.3                                 ;
 J_11_4             3               0.3                                 ;
 J_11_5             3               0.3                                 ;
 J_11_6             3               0.3                                 ;
 J_11_7             3               0.3                                 ;
 J_11_8             3               0.3                                 ;
 J_11_9             3               0.3                                 ;
 J_11_10            3               0.3                                 ;
 J_11_11            3               0.3                                 ;
 J_11_12            3               0.3                                 ;
 J_11_13            3               0.3                                 ;
 J_11_14            3               0.3                                 ;
 J_11_15            3               0.3                                 ;
 J_11_16            3               0.3                                 ;
 J_11_17            3               0.3                                 ;
 J_11_18            3               0.3                                 ;
 J_11_19            3               0.3                                 ;
 J_12_0             3               0.3                                 ;
 J_12_1             3               0.3                                 ;
 J_12_2             3               0.3                                 ;
 J_12_3             3               0.3                                 ;
 J_12_4             3               0.3                                 ;
 J_12_5             3               0.3                                 ;
 J_12_6             3               0.3                                 ;
 J_12_7             3               0.3                                 ;
 J_12_8             3               0.3                                 ;
 J_12_9             3               0.3                                 ;
 J_12_10            3               0.3                                 ;
 J_12_11            3               0.3                                 ;
 J_12_12            3               0.3                                 ;
 J_12_13            3               0.3                                 ;
 J_12_14            3               0.3                                 ;
 J_12_15            3               0.3                                 ;
 J_12_16            3               0.3                                 ;
 J_12_17            3               0.3                                 ;
 J_12_18            3               0.3                                 ;
 J_12_19            3               0.3                                 ;
 J_13_0             3               0.3                                 ;
 J_13_1             3               0.3                                 ;
 J_13_2             3               0.3                                 ;
 J_13_3             3               0.3                                 ;
 J_13_4             3               0.3                                 ;
 J_13_5             3               0.3                                 ;
 J_13_6             3               0.3                                 ;
 J_13_7             3               0.3                                 ;
 J_13_8             3               0.3                                 ;
 J_13_9             3               0.3                                 ;
 J_13_10            3               0.3                                 ;
 J_13_11            3               0.3                                 ;
 J_13_12            3               0.3                                 ;
 J_13_13            3               0.3                                 ;
 J_13_14            3               0.3                                 ;
 J_13_15            3               0.3                                 ;
 J_13_16            3               0.3                                 ;
 J_13_17            3               0.3                                 ;
 J_13_18            3               0.3                                 ;
 J_13_19            3               0.3                                 ;
 J_14_0             3               0.3                                 ;
 J_14_1             3               0.3                                 ;
 J_14_2             3               0.3                                 ;
 J_14_3             3               0.3                                 ;
 J_14_4             3               0.3                                 ;
 J_14_5             3               0.3                                 ;
 J_14_6             3               0.3                                 ;
 J_14_7             3               0.3                                 ;
 J_14_8             3               0.3                                 ;
 J_14_9             3               0.3                                 ;
 J_14_10            3               0.3                                 ;
 J_14_11            3               0.3                                 ;
 J_14_12            3               0.3                                 ;
 J_14_13            3               0.3                                 ;
 J_14_14            3               0.3                                 ;
 J_14_15            3               0.3                                 ;
 J_14_16            3               0.3                                 ;
 J_14_17            3               0.3                                 ;
 J_14_18            3               0.3                                 ;
 J_14_19            3               0.3                                 ;
 J_15_0             3               0.3                                 ;
 J_15_1             3               0.3                                 ;
 J_15_2             3               0.3                                 ;
 J_15_3             3               0.3                                 ;
 J_15_4             3               0.3                                 ;
 J_15_5             3               0.3                                 ;
 J_15_6             3               0.3                                 ;
 J_15_7             3               0.3                                 ;
 J_15_8             3               0.3                                 ;
 J_15_9             3               0.3                                 ;
 J_15_10            3               0.3                                 ;
 J_15_11            3               0.3                                 ;
 J_15_12            3               0.3                                 ;
 J_15_13            3               0.3                                 ;
 J_15_14            3               0.3                                 ;
 J_15_15            3               0.3                                 ;
 J_15_16            3               0.3                                 ;
 J_15_17            3               0.3                                 ;
 J_15_18            3               0.3                                 ;
 J_15_19            3               0.3                                 ;
 J_16_0             3               0.3                                 ;
 J_16_1             3               0.3                                 ;
 J_16_2             3               0.3                                 ;
 J_16_3             3               0.3                                 ;
 J_16_4             3               0.3                                 ;
 J_16_5             3               0.3                                 ;
 J_16_6             3               0.3                                 ;
 J_16_7             3               0.3                                 ;
 J_16_8             3               0.3                                 ;
 J_16_9             3               0.3                                 ;
 J_16_10            3               0.3                                 ;
 J_16_11            3               0.3                                 ;
 J_16_12            3               0.3                                 ;
 J_16_13            3               0.3                                 ;
 J_16_14            3               0.3                                 ;
 J_16_15            3               0.3                                 ;
 J_16_16            3               0.3                                 ;
 J_16_17            3               0.3                                 ;
 J_16_18            3               0.3                                 ;
 J_16_19            3               0.3                                 ;
 J_17_0             3               0.3                                 ;
 J_17_1             3               0.3                                 ;
 J_17_2             3               0.3                                 ;
 J_17_3             3               0.3                                 ;
 J_17_4             3               0.3                                 ;
 J_17_5             3               0.3                                 ;
 J_17_6             3               0.3                                 ;
 J_17_7             3               0.3                                 ;
 J_17_8             3               0.3                                 ;
 J_17_9             3               0.3                                 ;
 J_17_10            3               0.3                                 ;
 J_17_11            3               0.3                                 ;
 J_17_12            3               0.3                                 ;
 J_17_13            3               0.3                                 ;
 J_17_14            3               0.3                                 ;
 J_17_15            3               0.3                                 ;
 J_17_16            3               0.3                                 ;
 J_17_17            3               0.3                                 ;
 J_17_18            3               0.3                                 ;
 J_17_19            3               0.3                                 ;
 J_18_0             3               0.3                                 ;
 J_18_1             3               0.3                                 ;
 J_18_2             3               0.3                                 ;
 J_18_3             3               0.3                                 ;
 J_18_4             3               0.3                                 ;
 J_18_5             3               0.3                                 ;
 J_18_6             3               0.3                                 ;
 J_18_7             3               0.3                                 ;
 J_18_8             3               0.3                                 ;
 J_18_9             3               0.3                                 ;
 J_18_10            3               0.3                                 ;
 J_18_11            3               0.3                                 ;
 J_18_12            3               0.3                                 ;
 J_18_13            3               0.3                                 ;
 J_18_14            3               0.3                                 ;
 J_18_15            3               0.3                                 ;
 J_18_16            3               0.3                                 ;
 J_18_17            3               0.3                                 ;
 J_18_18            3               0.3                                 ;
 J_18_19            3               0.3                                 ;
 J_19_0             3               0.3                                 ;
 J_19_1             3               0.3                                 ;
 J_19_2             3               0.3                                 ;
 J_19_3             3               0.3                                 ;
 J_19_4             3               0.3                                 ;
 J_19_5             3               0.3                                 ;
 J_19_6             3               0.3                                 ;
 J_19_7             3               0.3                                 ;
 J_19_8             3               0.3                                 ;
 J_19_9             3               0.3                                 ;
 J_19_10            3               0.3                                 ;
 J_19_11            3               0.3                                 ;
 J_19_12            3               0.3                                 ;
 J_19_13            3               0.3                                 ;
 J_19_14            3               0.3                                 ;
 J_19_15            3               0.3                                 ;
 J_19_16            3               0.3                                 ;