[TITLE]
Amberfield — Delaunay street mesh, discrete DN, twin sources (EPANET 2.2, metric).

[JUNCTIONS]
;ID               Elev        Demand      Pattern
 J001             0.0         0.609756    1
 J002             0.0         0.609756    1
 J003             0.0         0.609756    1
 J004             0.0         0           
 J005             0.0         0.609756    1
 J006             0.0         0.609756    1
 J007             0.0         0           
 J008             0.0         0.609756    1
 J009             0.0         0.609756    1
 J010             0.0         0.609756    1
 J011             0.0         0.609756    1
 J012             0.0         0.609756    1
 J013             0.0         0.609756    1
 J014             0.0         0.609756    1
 J015             0.0         0.609756    1
 J016             0.0         0.609756    1
 J017             0.0         0.609756    1
 J018             0.0         0.609756    1
 J019             0.0         0.609756    1
 J020             0.0         0.609756    1
 J021             0.0         0.609756    1
 J022             0.0         0.609756    1
 J023             0.0         0.609756    1
 J024             0.0         0.609756    1
 J025             0.0         0.609756    1
 J026             0.0         0.609756    1
 J027             0.0         0.609756    1
 J028             0.0         0.609756    1
 J029             0.0         0.609756    1
 J030             0.0         0.609756    1
 J031             0.0         0.609756    1
 J032             0.0         0.609756    1
 J033             0.0         0.609756    1
 J034             0.0         0.609756    1
 J035             0.0         0.609756    1
 J036             0.0         0.609756    1
 J037             0.0         0.609756    1
 J038             0.0         0.609756    1
 J039             0.0         0.609756    1
 J040             0.0         0.609756    1
 J041             0.0         0.609756    1
 J042             0.0         0.609756    1
 J043             0.0         0.609756    1
 J044             0.0         0.609756    1
 J045             0.0         0.609756    1
 J046             0.0         0.609756    1
 J047             0.0         0.609756    1
 J048             0.0         0.609756    1
 J049             0.0         0.609756    1
 J050             0.0         0.609756    1
 J051             0.0         0.609756    1
 J052             0.0         0.609756    1
 J053             0.0         0.609756    1
 J054             0.0         0.609756    1
 J055             0.0         0.609756    1
 J056             0.0         0.609756    1
 J057             0.0         0.609756    1
 J058             0.0         0.609756    1
 J059             0.0         0.609756    1
 J060             0.0         0.609756    1
 J061             0.0         0.609756    1
 J062             0.0         0.609756    1
 J063             0.0         0.609756    1
 J064             0.0         0.609756    1
 J065             0.0         0.609756    1
 J066             0.0         0.609756    1
 J067             0.0         0.609756    1
 J068             0.0         0.609756    1
 J069             0.0         0.609756    1
 J070             0.0         0.609756    1
 J071             0.0         0.609756    1
 J072             0.0         0.609756    1
 J073             0.0         0.609756    1
 J074             0.0         0.609756    1
 J075             0.0         0.609756    1
 J076             0.0         0.609756    1
 J077             0.0         0.609756    1
 J078             0.0         0.609756    1
 J079             0.0         0.609756    1
 J080             0.0         0.609756    1
 J081             0.0         0.609756    1
 J082             0.0         0.609756    1
 J083             0.0         0.609756    1
 J084             0.0         0.609756    1

[RESERVOIRS]
;ID               Head            Pattern
 R1               52.0
 R2               52.0

[TANKS]

[PIPES]
;ID               Node1           Node2           Length  Diameter Roughness MinorLoss Status
 P001             J001            J014              113.3     250 110       0         Open
 P002             J001            J016              135.5     300 110       0         Open
 P003             J001            J019              114.2     250 110       0         Open
 P004             J001            J021              116.6     250 110       0         Open
 P005             J001            J026              123.2     250 110       0         Open
 P006             J002            J029              115.9     350 110       0         Open
 P007             J002            J031               81.1     400 110       0         Open
 P008             J002            J032              136.3     350 110       0         Open
 P009             J002            J036              106.2     350 110       0         Open
 P010             J003            J038              108.5     150 110       0         Open
 P011             J003            J040              121.3     125 110       0         Open
 P012             J003            J041               94.5     150 110       0         Open
 P013             J003            J042              103.8     125 110       0         Open
 P014             J004            J045               79.3     500 110       0         Open
 P015             J004            J046              120.2     500 110       0         Open
 P016             J004            J048              135.9     500 110       0         Open
 P017             J004            J053              122.5     500 110       0         Open
 P018             J005            J045               79.3     400 110       0         Open
 P019             J005            J056              111.5     350 110       0         Open
 P020             J005            J057              137.4     350 110       0         Open
 P021             J006            J015              113.3     250 110       0         Open
 P022             J006            J030              115.9     250 110       0         Open
 P023             J006            J039              108.5     250 110       0         Open
 P024             J006            J059              104.7     300 110       0         Open
 P025             J006            J062              120.3     250 110       0         Open
 P026             J006            J063              136.0     250 110       0         Open
 P027             J007            J018              135.5     500 110       0         Open
 P028             J007            J031               81.1     500 110       0         Open
 P029             J007            J061              104.7     500 110       0         Open
 P030             J008            J047              120.2     350 110       0         Open
 P031             J008            J056              111.5     300 110       0         Open
 P032             J008            J065              136.6     300 110       0         Open
 P033             J008            J068              105.4     300 110       0         Open
 P034             J008            J071              132.0     300 110       0         Open
 P035             J009            J035              136.3     150 110       0         Open
 P036             J009            J040              121.3     150 110       0         Open
 P037             J009            J052              135.9     200 110       0         Open
 P038             J009            J074              126.8     150 110       0         Open
 P039             J009            J076              117.5     150 110       0         Open
 P040             J010            J037              106.2     250 110       0         Open
 P041             J010            J041               94.5     200 110       0         Open
 P042             J010            J062              120.3     200 110       0         Open
 P043             J010            J075              126.8     200 110       0         Open
 P044             J011            J020              114.2     150 110       0         Open
 P045             J011            J067              136.6     150 110       0         Open
 P046             J011            J080              120.5     125 110       0         Open
 P047             J011            J082              108.4     125 110       0         Open
 P048             J012            J025              116.6     125 110       0         Open
 P049             J012            J070              105.4     150 110       0         Open
 P050             J012            J081              120.5     125 110       0         Open
 P051             J013            J028              123.2     250 110       0         Open
 P052             J013            J044              103.8     250 110       0         Open
 P053             J013            J055              122.5     300 110       0         Open
 P054             J013            J058              137.4     250 110       0         Open
 P055             J013            J064              136.0     250 110       0         Open
 P056             J013            J073              132.0     250 110       0         Open
 P057             J013            J079              117.5     250 110       0         Open
 P058             J013            J084              108.4     250 110       0         Open
 P059             J014            J015              113.3     200 110       0         Open
 P060             J016            J017              135.5     350 110       0         Open
 P061             J017            J018              135.5     400 110       0         Open
 P062             J019            J020              114.2     200 110       0         Open
 P063             J021            J022              116.6     200 110       0         Open
 P064             J022            J023              116.6     150 110       0         Open
 P065             J023            J024              116.6     125 110       0         Open
 P066             J024            J025              116.6     100 110       0         Open
 P067             J026            J027              123.2     200 110       0         Open
 P068             J027            J028              123.2     200 110       0         Open
 P069             J029            J030              115.9     300 110       0         Open
 P070             J032            J033              136.3     300 110       0         Open
 P071             J033            J034              136.3     250 110       0         Open
 P072             J034            J035              136.3     200 110       0         Open
 P073             J036            J037              106.2     300 110       0         Open
 P074             J038            J039              108.5     200 110       0         Open
 P075             J042            J043              103.8     150 110       0         Open
 P076             J043            J044              103.8     200 110       0         Open
 P077             J046            J047              120.2     400 110       0         Open
 P078             J048            J049              135.9     400 110       0         Open
 P079             J049            J050              135.9     350 110       0         Open
 P080             J050            J051              135.9     300 110       0         Open
 P081             J051            J052              135.9     250 110       0         Open
 P082             J053            J054              122.5     400 110       0         Open
 P083             J054            J055              122.5     350 110       0         Open
 P084             J057            J058              137.4     300 110       0         Open
 P085             J059            J060              104.7     350 110       0         Open
 P086             J060            J061              104.7     400 110       0         Open
 P087             J063            J064              136.0     200 110       0         Open
 P088             J065            J066              136.6     250 110       0         Open
 P089             J066            J067              136.6     200 110       0         Open
 P090             J068            J069              105.4     250 110       0         Open
 P091             J069            J070              105.4     200 110       0         Open
 P092             J071            J072              132.0     250 110       0         Open
 P093             J072            J073              132.0     200 110       0         Open
 P094             J074            J075              126.8     150 110       0         Open
 P095             J076            J077              117.5     125 110       0         Open
 P096             J077            J078              117.5     150 110       0         Open
 P097             J078            J079              117.5     200 110       0         Open
 P098             J080            J081              120.5     100 110       0         Open
 P099             J082            J083              108.4     150 110       0         Open
 P100             J083            J084              108.4     200 110       0         Open

[PUMPS]
;ID               Node1           Node2           Parameters
 PUMP01           R1              J004            HEAD 1
 PUMP02           R2              J007            HEAD 1

[VALVES]

[TAGS]

[DEMANDS]

[STATUS]

[PATTERNS]
;ID               Multipliers
 1                1.0         1.0         1.0         1.0         1.0         1.0
 1                1.0         1.0         1.0         1.0         1.0         1.0

[CURVES]
;ID               X-Value         Y-Value
 1                0               55
 1                200             42
 1                800             28
 1                2000            12

[CONTROLS]

[RULES]

[ENERGY]
 Global Efficiency      75
 Global Price           0
 Demand Charge          0

[EMITTERS]

[QUALITY]

[SOURCES]

[REACTIONS]
 Order Bulk             0
 Order Tank             0
 Order Wall             0
 Global Bulk            0
 Global Wall            0
 Limiting Potential     0
 Roughness Correlation  0

[MIXING]

[TIMES]
 Duration               24:00
 Hydraulic Timestep     1:00
 Quality Timestep       1:00
 Pattern Timestep       1:00
 Pattern Start          0:00
 Report Timestep        1:00
 Report Start           0:00
 Start ClockTime        12 am
 Statistic              None

[REPORT]
 Status                 Yes
 Summary                No
 Page                   0

[OPTIONS]
 Units                  LPS
 Headloss               H-W
 Specific Gravity       1
 Viscosity              1
 Trials                 40
 Accuracy               0.001
 CHECKFREQ              2
 MAXCHECK               10
 DAMPLIMIT              0
 Unbalanced             Continue 10
 Pattern                1
 Demand Multiplier      1
 Emitter Exponent       0.5
 Quality                NONE
 Diffusivity            1
 Tolerance              0.01

[COORDINATES]
;Node             X-Coord         Y-Coord
 R1                          44.0             0.0
 R2                        1413.9           832.3
 J001                      691.8           832.3
 J002                     1240.5           670.2
 J003                      959.8           248.4
 J004                      224.0             0.0
 J005                      199.1           156.7
 J006                      907.5           569.8
 J007                     1233.9           832.3
 J008                       33.5           306.1
 J009                     1038.9            19.0
 J010                     1075.8           397.7
 J011                      361.0           743.4
 J012                        0.0           726.4
 J013                      559.1           357.7
 J014                      763.7           744.8
 J015                      835.6           657.3
 J016                      827.3           832.3
 J017                      962.8           832.3
 J018                     1098.3           832.3
 J019                      581.5           802.7
 J020                      471.3           773.0
 J021                      576.5           814.7
 J022                      461.2           797.0
 J023                      345.9           779.4
 J024                      230.6           761.7
 J025                      115.3           744.1
 J026                      658.6           713.7
 J027                      625.4           595.0
 J028                      592.3           476.4
 J029                     1129.5           636.7
 J030                     1018.5           603.3
 J031                     1237.2           751.3
 J032                     1200.2           540.0
 J033                     1159.9           409.7
 J034                     1119.5           279.5
 J035                     1079.2           149.2
 J036                     1185.6           579.4
 J037                     1130.7           488.5
 J038                      942.4           355.6
 J039                      925.0           462.7
 J040                      999.4           133.7
 J041                     1017.8           323.1
 J042                      859.6           275.8
 J043                      759.5           303.1
 J044                      659.3           330.4
 J045                      211.6            78.3
 J046                      160.5           102.0
 J047                       97.0           204.1
 J048                      359.8             3.2
 J049                      495.6             6.3
 J050                      631.4             9.5
 J051                      767.3            12.7
 J052                      903.1            15.8
 J053                      307.8            89.4
 J054                      391.6           178.8
 J055                      475.3           268.3
 J056                      116.3           231.4
 J057                      319.1           223.7
 J058                      439.1           290.7
 J059                      989.1           635.4
 J060                     1070.7           701.1
 J061                     1152.3           766.7
 J062                      991.6           483.7
 J063                      791.4           499.1
 J064                      675.3           428.4
 J065                      115.4           415.4
 J066                      197.2           524.7
 J067                      279.1           634.0
 J068                       25.1           411.2
 J069                       16.7           516.3
 J070                        8.4           621.3
 J071                      164.9           319.0
 J072                      296.3           331.9
 J073                      427.7           344.8
 J074                     1051.2           145.2
 J075                     1063.5           271.5
 J076                      942.9            86.7
 J077                      847.0           154.5
 J078                      751.0           222.2
 J079                      655.1           289.9
 J080                      240.7           737.7
 J081                      120.3           732.1
 J082                      410.5           646.9
 J083                      460.1           550.5
 J084                      509.6           454.1

[VERTICES]

[END]
