[TITLE]
Guangzhou Xiaoguwei Island OSM roads (EPANET). Not survey-grade.

[JUNCTIONS]
;ID               Elev        Demand      Pattern
 J00001           12.0        0.0783546   1
 J00002           12.0        0.0783546   1
 J00003           12.0        0.0783546   1
 J00004           12.0        0.0783546   1
 J00005           12.0        0.0783546   1
 J00006           12.0        0.0783546   1
 J00007           12.0        0.0783546   1
 J00008           12.0        0.0783546   1
 J00009           12.0        0.0783546   1
 J00010           12.0        0           
 J00011           12.0        0.0783546   1
 J00012           12.0        0           
 J00013           12.0        0           
 J00014           12.0        0.0783546   1
 J00015           12.0        0           
 J00016           12.0        0           
 J00017           12.0        0.0783546   1
 J00018           12.0        0.0783546   1
 J00019           12.0        0.0783546   1
 J00020           12.0        0.0783546   1
 J00021           12.0        0.0783546   1
 J00022           12.0        0           
 J00023           12.0        0.0783546   1
 J00024           12.0        0.0783546   1
 J00025           12.0        0.0783546   1
 J00026           12.0        0           
 J00027           12.0        0.0783546   1
 J00028           12.0        0.0783546   1
 J00029           12.0        0.0783546   1
 J00030           12.0        0.0783546   1
 J00031           12.0        0.0783546   1
 J00032           12.0        0.0783546   1
 J00033           12.0        0           
 J00034           12.0        0.0783546   1
 J00035           12.0        0.0783546   1
 J00036           12.0        0           
 J00037           12.0        0.0783546   1
 J00038           12.0        0.0783546   1
 J00039           12.0        0.0783546   1
 J00040           12.0        0.0783546   1
 J00041           12.0        0           
 J00042           12.0        0.0783546   1
 J00043           12.0        0.0783546   1
 J00044           12.0        0.0783546   1
 J00045           12.0        0           
 J00046           12.0        0.0783546   1
 J00047           12.0        0.0783546   1
 J00048           12.0        0.0783546   1
 J00049           12.0        0.0783546   1
 J00050           12.0        0           
 J00051           12.0        0.0783546   1
 J00052           12.0        0.0783546   1
 J00053           12.0        0.0783546   1
 J00054           12.0        0.0783546   1
 J00055           12.0        0.0783546   1
 J00056           12.0        0           
 J00057           12.0        0.0783546   1
 J00058           12.0        0           
 J00059           12.0        0.0783546   1
 J00060           12.0        0.0783546   1
 J00061           12.0        0           
 J00062           12.0        0.0783546   1
 J00063           12.0        0.0783546   1
 J00064           12.0        0.0783546   1
 J00065           12.0        0.0783546   1
 J00066           12.0        0.0783546   1
 J00067           12.0        0           
 J00068           12.0        0.0783546   1
 J00069           12.0        0.0783546   1
 J00070           12.0        0.0783546   1
 J00071           12.0        0.0783546   1
 J00072           12.0        0           
 J00073           12.0        0.0783546   1
 J00074           12.0        0.0783546   1
 J00075           12.0        0.0783546   1
 J00076           12.0        0.0783546   1
 J00077           12.0        0.0783546   1
 J00078           12.0        0.0783546   1
 J00079           12.0        0.0783546   1
 J00080           12.0        0.0783546   1
 J00081           12.0        0.0783546   1
 J00082           12.0        0.0783546   1
 J00083           12.0        0.0783546   1
 J00084           12.0        0           
 J00085           12.0        0.0783546   1
 J00086           12.0        0           
 J00087           12.0        0.0783546   1
 J00088           12.0        0.0783546   1
 J00089           12.0        0.0783546   1
 J00090           12.0        0.0783546   1
 J00091           12.0        0.0783546   1
 J00092           12.0        0           
 J00093           12.0        0.0783546   1
 J00094           12.0        0.0783546   1
 J00095           12.0        0.0783546   1
 J00096           12.0        0.0783546   1
 J00097           12.0        0           
 J00098           12.0        0.0783546   1
 J00099           12.0        0.0783546   1
 J00100           12.0        0.0783546   1
 J00101           12.0        0.0783546   1
 J00102           12.0        0.0783546   1
 J00103           12.0        0           
 J00104           12.0        0.0783546   1
 J00105           12.0        0.0783546   1
 J00106           12.0        0.0783546   1
 J00107           12.0        0.0783546   1
 J00108           12.0        0           
 J00109           12.0        0.0783546   1
 J00110           12.0        0.0783546   1
 J00111           12.0        0           
 J00112           12.0        0.0783546   1
 J00113           12.0        0           
 J00114           12.0        0.0783546   1
 J00115           12.0        0.0783546   1
 J00116           12.0        0           
 J00117           12.0        0.0783546   1
 J00118           12.0        0.0783546   1
 J00119           12.0        0.0783546   1
 J00120           12.0        0.0783546   1
 J00121           12.0        0.0783546   1
 J00122           12.0        0.0783546   1
 J00123           12.0        0           
 J00124           12.0        0.0783546   1
 J00125           12.0        0.0783546   1
 J00126           12.0        0           
 J00127           12.0        0.0783546   1
 J00128           12.0        0.0783546   1
 J00129           12.0        0.0783546   1
 J00130           12.0        0.0783546   1
 J00131           12.0        0.0783546   1
 J00132           12.0        0.0783546   1
 J00133           12.0        0.0783546   1
 J00134           12.0        0.0783546   1
 J00135           12.0        0.0783546   1
 J00136           12.0        0.0783546   1
 J00137           12.0        0.0783546   1
 J00138           12.0        0.0783546   1
 J00139           12.0        0.0783546   1
 J00140           12.0        0.0783546   1
 J00141           12.0        0           
 J00142           12.0        0.0783546   1
 J00143           12.0        0.0783546   1
 J00144           12.0        0           
 J00145           12.0        0.0783546   1
 J00146           12.0        0.0783546   1
 J00147           12.0        0.0783546   1
 J00148           12.0        0.0783546   1
 J00149           12.0        0           
 J00150           12.0        0.0783546   1
 J00151           12.0        0.0783546   1
 J00152           12.0        0           
 J00153           12.0        0.0783546   1
 J00154           12.0        0.0783546   1
 J00155           12.0        0           
 J00156           12.0        0.0783546   1
 J00157           12.0        0.0783546   1
 J00158           12.0        0.0783546   1
 J00159           12.0        0.0783546   1
 J00160           12.0        0           
 J00161           12.0        0.0783546   1
 J00162           12.0        0.0783546   1
 J00163           12.0        0.0783546   1
 J00164           12.0        0           
 J00165           12.0        0.0783546   1
 J00166           12.0        0.0783546   1
 J00167           12.0        0           
 J00168           12.0        0.0783546   1
 J00169           12.0        0           
 J00170           12.0        0.0783546   1
 J00171           12.0        0.0783546   1
 J00172           12.0        0.0783546   1
 J00173           12.0        0           
 J00174           12.0        0.0783546   1
 J00175           12.0        0.0783546   1
 J00176           12.0        0.0783546   1
 J00177           12.0        0           
 J00178           12.0        0.0783546   1
 J00179           12.0        0.0783546   1
 J00180           12.0        0.0783546   1
 J00181           12.0        0.0783546   1
 J00182           12.0        0.0783546   1
 J00183           12.0        0.0783546   1
 J00184           12.0        0.0783546   1
 J00185           12.0        0.0783546   1
 J00186           12.0        0.0783546   1
 J00187           12.0        0.0783546   1
 J00188           12.0        0.0783546   1
 J00189           12.0        0.0783546   1
 J00190           12.0        0           
 J00191           12.0        0.0783546   1
 J00192           12.0        0           
 J00193           12.0        0.0783546   1
 J00194           12.0        0.0783546   1
 J00195           12.0        0.0783546   1
 J00196           12.0        0.0783546   1
 J00197           12.0        0.0783546   1
 J00198           12.0        0.0783546   1
 J00199           12.0        0.0783546   1
 J00200           12.0        0.0783546   1
 J00201           12.0        0.0783546   1
 J00202           12.0        0.0783546   1
 J00203           12.0        0.0783546   1
 J00204           12.0        0           
 J00205           12.0        0.0783546   1
 J00206           12.0        0.0783546   1
 J00207           12.0        0           
 J00208           12.0        0.0783546   1
 J00209           12.0        0.0783546   1
 J00210           12.0        0.0783546   1
 J00211           12.0        0.0783546   1
 J00212           12.0        0.0783546   1
 J00213           12.0        0.0783546   1
 J00214           12.0        0.0783546   1
 J00215           12.0        0           
 J00216           12.0        0.0783546   1
 J00217           12.0        0           
 J00218           12.0        0.0783546   1
 J00219           12.0        0           
 J00220           12.0        0.0783546   1
 J00221           12.0        0.0783546   1
 J00222           12.0        0           
 J00223           12.0        0.0783546   1
 J00224           12.0        0.0783546   1
 J00225           12.0        0.0783546   1
 J00226           12.0        0           
 J00227           12.0        0.0783546   1
 J00228           12.0        0.0783546   1
 J00229           12.0        0           
 J00230           12.0        0.0783546   1
 J00231           12.0        0.0783546   1
 J00232           12.0        0           
 J00233           12.0        0.0783546   1
 J00234           12.0        0.0783546   1
 J00235           12.0        0.0783546   1
 J00236           12.0        0.0783546   1
 J00237           12.0        0.0783546   1
 J00238           12.0        0.0783546   1
 J00239           12.0        0.0783546   1
 J00240           12.0        0.0783546   1
 J00241           12.0        0.0783546   1
 J00242           12.0        0.0783546   1
 J00243           12.0        0.0783546   1
 J00244           12.0        0.0783546   1
 J00245           12.0        0.0783546   1
 J00246           12.0        0.0783546   1
 J00247           12.0        0.0783546   1
 J00248           12.0        0.0783546   1
 J00249           12.0        0.0783546   1
 J00250           12.0        0           
 J00251           12.0        0.0783546   1
 J00252           12.0        0.0783546   1
 J00253           12.0        0.0783546   1
 J00254           12.0        0           
 J00255           12.0        0.0783546   1
 J00256           12.0        0.0783546   1
 J00257           12.0        0.0783546   1
 J00258           12.0        0.0783546   1
 J00259           12.0        0           
 J00260           12.0        0.0783546   1
 J00261           12.0        0.0783546   1
 J00262           12.0        0.0783546   1
 J00263           12.0        0.0783546   1
 J00264           12.0        0           
 J00265           12.0        0.0783546   1
 J00266           12.0        0.0783546   1
 J00267           12.0        0           
 J00268           12.0        0.0783546   1
 J00269           12.0        0.0783546   1
 J00270           12.0        0.0783546   1
 J00271           12.0        0           
 J00272           12.0        0.0783546   1
 J00273           12.0        0           
 J00274           12.0        0.0783546   1
 J00275           12.0        0           
 J00276           12.0        0.0783546   1
 J00277           12.0        0.0783546   1
 J00278           12.0        0.0783546   1
 J00279           12.0        0.0783546   1
 J00280           12.0        0           
 J00281           12.0        0.0783546   1
 J00282           12.0        0.0783546   1
 J00283           12.0        0.0783546   1
 J00284           12.0        0.0783546   1
 J00285           12.0        0.0783546   1
 J00286           12.0        0.0783546   1
 J00287           12.0        0.0783546   1
 J00288           12.0        0.0783546   1
 J00289           12.0        0.0783546   1
 J00290           12.0        0.0783546   1
 J00291           12.0        0.0783546   1
 J00292           12.0        0.0783546   1
 J00293           12.0        0.0783546   1
 J00294           12.0        0.0783546   1
 J00295           12.0        0           
 J00296           12.0        0.0783546   1
 J00297           12.0        0.0783546   1
 J00298           12.0        0.0783546   1
 J00299           12.0        0.0783546   1
 J00300           12.0        0           
 J00301           12.0        0.0783546   1
 J00302           12.0        0.0783546   1
 J00303           12.0        0.0783546   1
 J00304           12.0        0.0783546   1
 J00305           12.0        0.0783546   1
 J00306           12.0        0.0783546   1
 J00307           12.0        0.0783546   1
 J00308           12.0        0.0783546   1
 J00309           12.0        0.0783546   1
 J00310           12.0        0.0783546   1
 J00311           12.0        0.0783546   1
 J00312           12.0        0.0783546   1
 J00313           12.0        0.0783546   1
 J00314           12.0        0.0783546   1
 J00315           12.0        0.0783546   1
 J00316           12.0        0.0783546   1
 J00317           12.0        0.0783546   1
 J00318           12.0        0.0783546   1
 J00319           12.0        0.0783546   1
 J00320           12.0        0.0783546   1
 J00321           12.0        0.0783546   1
 J00322           12.0        0.0783546   1
 J00323           12.0        0           
 J00324           12.0        0.0783546   1
 J00325           12.0        0.0783546   1
 J00326           12.0        0.0783546   1
 J00327           12.0        0.0783546   1
 J00328           12.0        0.0783546   1
 J00329           12.0        0           
 J00330           12.0        0.0783546   1
 J00331           12.0        0           
 J00332           12.0        0.0783546   1
 J00333           12.0        0.0783546   1
 J00334           12.0        0.0783546   1
 J00335           12.0        0.0783546   1
 J00336           12.0        0           
 J00337           12.0        0.0783546   1
 J00338           12.0        0           
 J00339           12.0        0.0783546   1
 J00340           12.0        0           
 J00341           12.0        0.0783546   1
 J00342           12.0        0           
 J00343           12.0        0.0783546   1
 J00344           12.0        0.0783546   1
 J00345           12.0        0.0783546   1
 J00346           12.0        0           
 J00347           12.0        0.0783546   1
 J00348           12.0        0.0783546   1
 J00349           12.0        0.0783546   1
 J00350           12.0        0           
 J00351           12.0        0.0783546   1
 J00352           12.0        0.0783546   1
 J00353           12.0        0.0783546   1
 J00354           12.0        0.0783546   1
 J00355           12.0        0           
 J00356           12.0        0.0783546   1
 J00357           12.0        0.0783546   1
 J00358           12.0        0.0783546   1
 J00359           12.0        0           
 J00360           12.0        0.0783546   1
 J00361           12.0        0.0783546   1
 J00362           12.0        0           
 J00363           12.0        0.0783546   1
 J00364           12.0        0.0783546   1
 J00365           12.0        0.0783546   1
 J00366           12.0        0           
 J00367           12.0        0.0783546   1
 J00368           12.0        0           
 J00369           12.0        0.0783546   1
 J00370           12.0        0.0783546   1
 J00371           12.0        0.0783546   1
 J00372           12.0        0.0783546   1
 J00373           12.0        0           
 J00374           12.0        0.0783546   1
 J00375           12.0        0.0783546   1
 J00376           12.0        0.0783546   1
 J00377           12.0        0.0783546   1
 J00378           12.0        0.0783546   1
 J00379           12.0        0.0783546   1
 J00380           12.0        0.0783546   1
 J00381           12.0        0.0783546   1
 J00382           12.0        0.0783546   1
 J00383           12.0        0           
 J00384           12.0        0.0783546   1
 J00385           12.0        0.0783546   1
 J00386           12.0        0.0783546   1
 J00387           12.0        0           
 J00388           12.0        0.0783546   1
 J00389           12.0        0.0783546   1
 J00390           12.0        0.0783546   1
 J00391           12.0        0.0783546   1
 J00392           12.0        0           
 J00393           12.0        0.0783546   1
 J00394           12.0        0.0783546   1
 J00395           12.0        0.0783546   1
 J00396           12.0        0.0783546   1
 J00397           12.0        0.0783546   1
 J00398           12.0        0           
 J00399           12.0        0.0783546   1
 J00400           12.0        0.0783546   1
 J00401           12.0        0           
 J00402           12.0        0.0783546   1
 J00403           12.0        0.0783546   1
 J00404           12.0        0.0783546   1
 J00405           12.0        0.0783546   1
 J00406           12.0        0.0783546   1
 J00407           12.0        0.0783546   1
 J00408           12.0        0.0783546   1
 J00409           12.0        0.0783546   1
 J00410           12.0        0           
 J00411           12.0        0.0783546   1
 J00412           12.0        0.0783546   1
 J00413           12.0        0.0783546   1
 J00414           12.0        0.0783546   1
 J00415           12.0        0           
 J00416           12.0        0.0783546   1
 J00417           12.0        0.0783546   1
 J00418           12.0        0.0783546   1
 J00419           12.0        0.0783546   1
 J00420           12.0        0.0783546   1
 J00421           12.0        0.0783546   1
 J00422           12.0        0.0783546   1
 J00423           12.0        0.0783546   1
 J00424           12.0        0.0783546   1
 J00425           12.0        0.0783546   1
 J00426           12.0        0.0783546   1
 J00427           12.0        0           
 J00428           12.0        0.0783546   1
 J00429           12.0        0.0783546   1
 J00430           12.0        0.0783546   1
 J00431           12.0        0.0783546   1
 J00432           12.0        0.0783546   1
 J00433           12.0        0           
 J00434           12.0        0.0783546   1
 J00435           12.0        0.0783546   1
 J00436           12.0        0.0783546   1
 J00437           12.0        0.0783546   1
 J00438           12.0        0           
 J00439           12.0        0.0783546   1
 J00440           12.0        0.0783546   1
 J00441           12.0        0.0783546   1
 J00442           12.0        0.0783546   1
 J00443           12.0        0.0783546   1
 J00444           12.0        0.0783546   1
 J00445           12.0        0.0783546   1
 J00446           12.0        0           
 J00447           12.0        0.0783546   1
 J00448           12.0        0           
 J00449           12.0        0.0783546   1
 J00450           12.0        0.0783546   1
 J00451           12.0        0.0783546   1
 J00452           12.0        0.0783546   1
 J00453           12.0        0.0783546   1
 J00454           12.0        0           
 J00455           12.0        0.0783546   1
 J00456           12.0        0.0783546   1
 J00457           12.0        0           
 J00458           12.0        0.0783546   1
 J00459           12.0        0.0783546   1
 J00460           12.0        0           
 J00461           12.0        0.0783546   1
 J00462           12.0        0.0783546   1
 J00463           12.0        0.0783546   1
 J00464           12.0        0.0783546   1
 J00465           12.0        0.0783546   1
 J00466           12.0        0           
 J00467           12.0        0.0783546   1
 J00468           12.0        0.0783546   1
 J00469           12.0        0.0783546   1
 J00470           12.0        0.0783546   1
 J00471           12.0        0.0783546   1
 J00472           12.0        0.0783546   1
 J00473           12.0        0.0783546   1
 J00474           12.0        0.0783546   1
 J00475           12.0        0           
 J00476           12.0        0.0783546   1
 J00477           12.0        0.0783546   1
 J00478           12.0        0.0783546   1
 J00479           12.0        0.0783546   1
 J00480           12.0        0           
 J00481           12.0        0.0783546   1
 J00482           12.0        0.0783546   1
 J00483           12.0        0.0783546   1
 J00484           12.0        0.0783546   1
 J00485           12.0        0.0783546   1
 J00486           12.0        0.0783546   1
 J00487           12.0        0.0783546   1
 J00488           12.0        0           
 J00489           12.0        0.0783546   1
 J00490           12.0        0.0783546   1
 J00491           12.0        0           
 J00492           12.0        0.0783546   1
 J00493           12.0        0           
 J00494           12.0        0.0783546   1
 J00495           12.0        0           
 J00496           12.0        0.0783546   1
 J00497           12.0        0.0783546   1
 J00498           12.0        0.0783546   1
 J00499           12.0        0           
 J00500           12.0        0.0783546   1
 J00501           12.0        0.0783546   1
 J00502           12.0        0.0783546   1
 J00503           12.0        0.0783546   1
 J00504           12.0        0           
 J00505           12.0        0.0783546   1
 J00506           12.0        0.0783546   1
 J00507           12.0        0           
 J00508           12.0        0.0783546   1
 J00509           12.0        0.0783546   1
 J00510           12.0        0.0783546   1
 J00511           12.0        0.0783546   1
 J00512           12.0        0           
 J00513           12.0        0.0783546   1
 J00514           12.0        0.0783546   1
 J00515           12.0        0           
 J00516           12.0        0.0783546   1
 J00517           12.0        0           
 J00518           12.0        0.0783546   1
 J00519           12.0        0.0783546   1
 J00520           12.0        0.0783546   1
 J00521           12.0        0.0783546   1
 J00522           12.0        0.0783546   1
 J00523           12.0        0.0783546   1
 J00524           12.0        0.0783546   1
 J00525           12.0        0.0783546   1
 J00526           12.0        0           
 J00527           12.0        0.0783546   1
 J00528           12.0        0.0783546   1
 J00529           12.0        0.0783546   1
 J00530           12.0        0.0783546   1
 J00531           12.0        0.0783546   1
 J00532           12.0        0           
 J00533           12.0        0.0783546   1
 J00534           12.0        0.0783546   1
 J00535           12.0        0.0783546   1
 J00536           12.0        0.0783546   1
 J00537           12.0        0.0783546   1
 J00538           12.0        0.0783546   1
 J00539           12.0        0           
 J00540           12.0        0.0783546   1
 J00541           12.0        0           
 J00542           12.0        0.0783546   1
 J00543           12.0        0           
 J00544           12.0        0.0783546   1
 J00545           12.0        0.0783546   1
 J00546           12.0        0           
 J00547           12.0        0.0783546   1
 J00548           12.0        0           
 J00549           12.0        0.0783546   1
 J00550           12.0        0.0783546   1
 J00551           12.0        0.0783546   1
 J00552           12.0        0.0783546   1
 J00553           12.0        0           
 J00554           12.0        0.0783546   1
 J00555           12.0        0.0783546   1
 J00556           12.0        0           
 J00557           12.0        0.0783546   1
 J00558           12.0        0.0783546   1
 J00559           12.0        0           
 J00560           12.0        0           
 J00561           12.0        0.0783546   1
 J00562           12.0        0           
 J00563           12.0        0.0783546   1
 J00564           12.0        0.0783546   1
 J00565           12.0        0           
 J00566           12.0        0.0783546   1
 J00567           12.0        0.0783546   1
 J00568           12.0        0           
 J00569           12.0        0.0783546   1
 J00570           12.0        0.0783546   1
 J00571           12.0        0.0783546   1
 J00572           12.0        0.0783546   1
 J00573           12.0        0.0783546   1
 J00574           12.0        0.0783546   1
 J00575           12.0        0           
 J00576           12.0        0.0783546   1
 J00577           12.0        0.0783546   1
 J00578           12.0        0           
 J00579           12.0        0.0783546   1
 J00580           12.0        0.0783546   1
 J00581           12.0        0.0783546   1
 J00582           12.0        0.0783546   1
 J00583           12.0        0.0783546   1
 J00584           12.0        0.0783546   1
 J00585           12.0        0.0783546   1
 J00586           12.0        0.0783546   1
 J00587           12.0        0           
 J00588           12.0        0.0783546   1
 J00589           12.0        0.0783546   1
 J00590           12.0        0.0783546   1
 J00591           12.0        0.0783546   1
 J00592           12.0        0.0783546   1
 J00593           12.0        0.0783546   1
 J00594           12.0        0.0783546   1
 J00595           12.0        0.0783546   1
 J00596           12.0        0           
 J00597           12.0        0.0783546   1
 J00598           12.0        0.0783546   1
 J00599           12.0        0.0783546   1
 J00600           12.0        0.0783546   1
 J00601           12.0        0.0783546   1
 J00602           12.0        0           
 J00603           12.0        0.0783546   1
 J00604           12.0        0.0783546   1
 J00605           12.0        0.0783546   1
 J00606           12.0        0.0783546   1
 J00607           12.0        0.0783546   1
 J00608           12.0        0.0783546   1
 J00609           12.0        0.0783546   1
 J00610           12.0        0.0783546   1
 J00611           12.0        0           
 J00612           12.0        0.0783546   1
 J00613           12.0        0.0783546   1
 J00614           12.0        0.0783546   1
 J00615           12.0        0           
 J00616           12.0        0.0783546   1
 J00617           12.0        0.0783546   1
 J00618           12.0        0.0783546   1
 J00619           12.0        0           
 J00620           12.0        0.0783546   1
 J00621           12.0        0           
 J00622           12.0        0.0783546   1
 J00623           12.0        0.0783546   1
 J00624           12.0        0.0783546   1
 J00625           12.0        0.0783546   1
 J00626           12.0        0.0783546   1
 J00627           12.0        0.0783546   1
 J00628           12.0        0.0783546   1
 J00629           12.0        0.0783546   1
 J00630           12.0        0.0783546   1
 J00631           12.0        0.0783546   1
 J00632           12.0        0.0783546   1
 J00633           12.0        0.0783546   1
 J00634           12.0        0           
 J00635           12.0        0.0783546   1
 J00636           12.0        0           
 J00637           12.0        0.0783546   1
 J00638           12.0        0.0783546   1
 J00639           12.0        0.0783546   1
 J00640           12.0        0.0783546   1
 J00641           12.0        0.0783546   1
 J00642           12.0        0           
 J00643           12.0        0.0783546   1
 J00644           12.0        0.0783546   1
 J00645           12.0        0.0783546   1
 J00646           12.0        0           
 J00647           12.0        0.0783546   1
 J00648           12.0        0           
 J00649           12.0        0.0783546   1
 J00650           12.0        0.0783546   1
 J00651           12.0        0.0783546   1
 J00652           12.0        0.0783546   1
 J00653           12.0        0           
 J00654           12.0        0.0783546   1
 J00655           12.0        0.0783546   1
 J00656           12.0        0.0783546   1
 J00657           12.0        0.0783546   1
 J00658           12.0        0.0783546   1
 J00659           12.0        0           
 J00660           12.0        0.0783546   1
 J00661           12.0        0.0783546   1
 J00662           12.0        0.0783546   1
 J00663           12.0        0.0783546   1
 J00664           12.0        0.0783546   1
 J00665           12.0        0           
 J00666           12.0        0.0783546   1
 J00667           12.0        0           
 J00668           12.0        0.0783546   1
 J00669           12.0        0           
 J00670           12.0        0.0783546   1
 J00671           12.0        0.0783546   1
 J00672           12.0        0.0783546   1
 J00673           12.0        0.0783546   1
 J00674           12.0        0.0783546   1
 J00675           12.0        0.0783546   1
 J00676           12.0        0           
 J00677           12.0        0.0783546   1
 J00678           12.0        0.0783546   1
 J00679           12.0        0.0783546   1
 J00680           12.0        0           
 J00681           12.0        0.0783546   1