[TITLE]
Rivervale district — planned mixed use, 30000 m3/d, dual sources (EPANET 2.2).

[JUNCTIONS]
;ID               Elev        Demand      Pattern
 J001             0.0         0           
 J002             0.0         6.01852     1
 J003             0.0         5.55556     2
 J004             0.0         5.55556     2
 J005             0.0         6.01852     1
 J006             0.0         9.25926     4
 J007             0.0         9.25926     4
 J008             0.0         9.25926     4
 J009             0.0         6.01852     1
 J010             0.0         6.01852     1
 J011             0.0         5.55556     2
 J012             0.0         6.01852     1
 J013             0.0         5.55556     2
 J014             0.0         5.55556     2
 J015             0.0         6.01852     1
 J016             0.0         6.01852     1
 J017             0.0         9.25926     3
 J018             0.0         6.01852     1
 J019             0.0         6.01852     1
 J020             0.0         6.01852     1
 J021             0.0         9.25926     4
 J022             0.0         6.01852     1
 J023             0.0         9.25926     4
 J024             0.0         6.01852     1
 J025             0.0         9.25926     4
 J026             0.0         5.55556     2
 J027             0.0         6.01852     1
 J028             0.0         6.01852     1
 J029             0.0         9.25926     4
 J030             0.0         6.01852     1
 J031             0.0         6.01852     1
 J032             0.0         9.25926     4
 J033             0.0         5.55556     2
 J034             0.0         6.01852     1
 J035             0.0         6.01852     1
 J036             0.0         6.01852     1
 J037             0.0         0           
 J038             0.0         9.25926     3
 J039             0.0         9.25926     4
 J040             0.0         6.01852     1
 J041             0.0         6.01852     1
 J042             0.0         6.01852     1
 J043             0.0         6.01852     1
 J044             0.0         6.01852     1
 J045             0.0         5.55556     2
 J046             0.0         6.01852     1
 J047             0.0         6.01852     1
 J048             0.0         6.01852     1
 J049             0.0         5.55556     2
 J050             0.0         5.55556     2
 J051             0.0         6.01852     1
 J052             0.0         9.25926     3
 J053             0.0         6.01852     1
 J054             0.0         6.01852     1

[RESERVOIRS]
;ID               Head            Pattern
 R1               52.0
 R2               52.0

[TANKS]

[PIPES]
;ID               Node1           Node2           Length  Diameter Roughness MinorLoss Status
 P0001            J001            J010              105.7     500 110       0         Open
 P0002            J001            J012               55.3     500 110       0         Open
 P0003            J002            J009               74.1     300 110       0         Open
 P0004            J002            J024              120.7     350 110       0         Open
 P0005            J002            J047              157.8     300 110       0         Open
 P0006            J003            J013               60.4     150 110       0         Open
 P0007            J003            J016              125.3     200 110       0         Open
 P0008            J003            J040              137.1     150 110       0         Open
 P0009            J003            J050              164.4     200 110       0         Open
 P0010            J004            J005              164.5     300 110       0         Open
 P0011            J004            J011              111.8     250 110       0         Open
 P0012            J004            J014               71.5     250 110       0         Open
 P0013            J004            J022              127.4     250 110       0         Open
 P0014            J004            J028              151.4     250 110       0         Open
 P0015            J004            J050              162.5     250 110       0         Open
 P0016            J005            J011              158.0     300 110       0         Open
 P0017            J005            J022              129.7     300 110       0         Open
 P0018            J005            J025              127.0     300 110       0         Open
 P0019            J005            J032              159.3     350 110       0         Open
 P0020            J006            J008              127.8     400 110       0         Open
 P0021            J006            J023               97.2     350 110       0         Open
 P0022            J006            J025              157.3     350 110       0         Open
 P0023            J006            J032               92.4     350 110       0         Open
 P0024            J007            J023              145.8     400 110       0         Open
 P0025            J007            J037              128.8     500 110       0         Open
 P0026            J008            J032              109.3     400 110       0         Open
 P0027            J008            J037              160.7     500 110       0         Open
 P0028            J008            J041              115.9     400 110       0         Open
 P0029            J008            J048              123.5     400 110       0         Open
 P0030            J009            J016              137.6     250 110       0         Open
 P0031            J009            J043              144.3     250 110       0         Open
 P0032            J009            J047              141.8     250 110       0         Open
 P0033            J010            J012               66.2     400 110       0         Open
 P0034            J010            J024              109.0     400 110       0         Open
 P0035            J010            J053              128.7     400 110       0         Open
 P0036            J011            J026              103.5     250 110       0         Open
 P0037            J011            J050              138.7     250 110       0         Open
 P0038            J013            J014               99.3     200 110       0         Open
 P0039            J013            J044              109.8     150 110       0         Open
 P0040            J013            J050              152.2     200 110       0         Open
 P0041            J014            J028              130.7     200 110       0         Open
 P0042            J014            J044               89.4     200 110       0         Open
 P0043            J015            J018              128.2     150 110       0         Open
 P0044            J016            J040               90.9     200 110       0         Open
 P0045            J016            J043              107.8     200 110       0         Open
 P0046            J017            J019              149.5     125 110       0         Open
 P0047            J017            J038              119.0     125 110       0         Open
 P0048            J018            J039              137.7     200 110       0         Open
 P0049            J018            J049              130.5     150 110       0         Open
 P0050            J019            J044              119.9     150 110       0         Open
 P0051            J020            J030              171.1     150 110       0         Open
 P0052            J020            J031               86.7     125 110       0         Open
 P0053            J020            J046              113.4     125 110       0         Open
 P0054            J021            J025              137.7     300 110       0         Open
 P0055            J021            J039              139.7     250 110       0         Open
 P0056            J022            J028               90.9     250 110       0         Open
 P0057            J022            J035              126.2     300 110       0         Open
 P0058            J024            J053              111.1     350 110       0         Open
 P0059            J026            J049              103.2     200 110       0         Open
 P0060            J026            J050              133.2     200 110       0         Open
 P0061            J027            J029              157.4     150 110       0         Open
 P0062            J028            J044              130.9     200 110       0         Open
 P0063            J028            J052              108.6     200 110       0         Open
 P0064            J029            J039               97.6     200 110       0         Open
 P0065            J029            J051               85.3     150 110       0         Open
 P0066            J030            J040              135.0     150 110       0         Open
 P0067            J030            J043              132.2     200 110       0         Open
 P0068            J032            J035              157.8     350 110       0         Open
 P0069            J032            J048              103.3     350 110       0         Open
 P0070            J033            J036              120.4     250 110       0         Open
 P0071            J033            J045              134.1     200 110       0         Open
 P0072            J034            J036              161.3     250 110       0         Open
 P0073            J034            J045              138.3     200 110       0         Open
 P0074            J034            J049              142.0     200 110       0         Open
 P0075            J035            J042               99.2     300 110       0         Open
 P0076            J035            J048              118.3     350 110       0         Open
 P0077            J036            J045              116.4     250 110       0         Open
 P0078            J036            J054              118.7     300 110       0         Open
 P0079            J037            J041              165.5     500 110       0         Open
 P0080            J038            J052              149.5     150 110       0         Open
 P0081            J040            J043               93.8     200 110       0         Open
 P0082            J041            J048              135.0     400 110       0         Open
 P0083            J042            J048               92.0     350 110       0         Open
 P0084            J045            J049              143.7     200 110       0         Open
 P0085            J045            J050              139.7     200 110       0         Open
 P0086            J053            J054              110.7     350 110       0         Open

[PUMPS]
;ID               Node1           Node2           Parameters
 PUMP01           R1              J001            HEAD 1
 PUMP02           R2              J037            HEAD 1

[VALVES]

[TAGS]

[DEMANDS]

[STATUS]

[PATTERNS]
;ID               Multipliers (24 h, 4×6)
 1                   0.4436     0.4436     0.4436     0.4436     0.4436     0.4436
 1                   1.3074     1.3074     1.3074     1.0272     1.0272     1.0272
 1                   1.0272     1.0272     1.0272     1.0272     1.0272     1.4591
 1                   1.4591     1.4591     1.4591     1.4591     1.4591     0.4436
 2                   0.4476     0.4476     0.4476     0.4476     0.4476     0.4476
 2                   0.4476     1.0124     1.0124     1.3641     1.3641     1.3641
 2                   1.3641     1.3641     1.3641     1.3641     1.3641     1.3641
 2                   1.3641     1.3641     1.3641     1.0124     1.0124     0.4476
 3                   0.3887     0.3887     0.3887     0.3887     0.3887     0.3887
 3                   0.3887     1.0411     1.8739     1.8739     1.8739     1.8739
 3                   1.8739     1.8739     1.8739     1.8739     1.8739     1.0411
 3                   0.3887     0.3887     0.3887     0.3887     0.3887     0.3887
 4                   0.9262     0.9262     0.9262     0.9262     0.9262     0.9262
 4                   0.9262     0.9262     1.0872     1.0872     1.0872     1.0872
 4                   1.0872     1.0872     1.0872     1.0872     1.0872     1.0872
 4                   1.0872     0.9262     0.9262     0.9262     0.9262     0.9262

[CURVES]
;ID               X-Value         Y-Value
 1                0               55
 1                200             42
 1                800             28
 1                2000            12

[CONTROLS]

[RULES]

[ENERGY]
 Global Efficiency      75
 Global Price           0
 Demand Charge          0

[EMITTERS]

[QUALITY]

[SOURCES]

[REACTIONS]
 Order Bulk             0
 Order Tank             0
 Order Wall             0
 Global Bulk            0
 Global Wall            0
 Limiting Potential     0
 Roughness Correlation  0

[MIXING]

[TIMES]
 Duration               24:00
 Hydraulic Timestep     1:00
 Quality Timestep       1:00
 Pattern Timestep       1:00
 Pattern Start          0:00
 Report Timestep        1:00
 Report Start           0:00
 Start ClockTime        12 am
 Statistic              None

[REPORT]
 Status                 Yes
 Summary                No
 Page                   0

[OPTIONS]
 Units                  LPS
 Headloss               H-W
 Specific Gravity       1
 Viscosity              1
 Trials                 40
 Accuracy               0.001
 CHECKFREQ              2
 MAXCHECK               10
 DAMPLIMIT              0
 Unbalanced             Continue 10
 Pattern                1
 Demand Multiplier      1
 Emitter Exponent       0.5
 Quality                NONE
 Diffusivity            1
 Tolerance              0.01

[COORDINATES]
;Node             X-Coord         Y-Coord
 R1                        -187.1            24.0
 R2                        1290.1           815.0
 J001                       12.9            24.0
 J002                      178.8           257.2
 J003                      394.2           451.9
 J004                      591.2           522.8
 J005                      750.8           563.1
 J006                      926.3           621.2
 J007                     1102.5           686.8
 J008                      944.1           747.7
 J009                      167.1           330.4
 J010                      117.9            36.6
 J011                      659.4           434.2
 J012                       62.7             0.0
 J013                      441.9           488.9
 J014                      523.5           545.6
 J015                      779.2            79.7
 J016                      273.7           417.4
 J017                      302.7           817.5
 J018                      784.5           207.7
 J019                      365.3           681.8
 J020                       56.2           728.0
 J021                      919.1           364.6
 J022                      645.1           638.3
 J023                     1010.9           573.4
 J024                      156.3           138.6
 J025                      849.9           483.7
 J026                      663.9           330.8
 J027                     1140.6           137.5
 J028                      560.2           671.0
 J029                      983.7           150.1
 J030                      176.0           605.9
 J031                      123.7           782.5
 J032                      856.7           682.1
 J033                      383.6           271.6
 J034                      576.6           109.9
 J035                      712.1           745.2
 J036                      422.5           157.6
 J037                     1090.1           815.0
 J038                      409.9           869.3
 J039                      921.1           224.9
 J040                      269.2           508.2
 J041                      931.8           863.0
 J042                      751.7           836.1
 J043                      181.9           473.9
 J044                      451.4           598.3
 J045                      511.8           232.2
 J046                        0.0           629.6
 J047                       27.9           303.5
 J048                      825.0           780.4
 J049                      655.5           227.9
 J050                      536.6           369.7
 J051                      986.9            64.8
 J052                      524.7           773.6
 J053                      242.5            68.5
 J054                      353.0            61.3

[VERTICES]

[END]
