[TITLE]

      PROJECT NAME: ANYTOWN
      PROJECT DESCRIPTION: Anytown Network, USA (Walski et al., 1987)
      PROJECT CREATOR: Hugo J. Bartolín
      CREATION DATE: 24-08-2002 22:33:03
      NAME OF SCENARIO: Anytown
      SCENARIO DESCRIPTION: Anytown Network, USA (Walski et al., 1987)
    exported by noria (1.0)
  exported by noria (1.0)

exported by noria (1.0)

[JUNCTIONS]
;ID              	Elev        	Demand      	Pattern         
20              	        6.23	       31.51	                	;
30              	       15.24	       12.52	                	;
40              	       15.24	       12.52	                	;
50              	       15.24	       31.51	                	;
60              	       15.24	       50.90	                	;
70              	       15.24	       31.51	                	;
80              	       15.24	       31.51	                	;
90              	       15.24	       63.83	Demand1         	;
100             	       15.24	       12.52	                	;
110             	       15.24	       12.52	                	;
120             	       36.60	       31.51	                	;
130             	       36.60	       12.52	                	;
140             	       24.40	       12.52	Demand1         	;
150             	       36.60	       12.52	                	;
160             	       36.60	       31.51	                	;
170             	       36.60	       12.52	                	;
2002UpS         	           0	           0	                	;
2002DwS         	        6.23	           0	                	;
2001UpS         	           0	           0	                	;
2001DwS         	        6.23	           0	                	;
Pump3UpS        	           0	           0	                	;
Pump3DwS        	        6.23	           0	                	;

[RESERVOIRS]
;ID              	Head        	Pattern         
SOURCE          	        3.04	                	;

[TANKS]
;ID              	Elevation   	InitLevel   	MinLevel    	MaxLevel    	Diameter    	MinVol      	VolCurve        	Overflow
TANKA           	       65.50           6           0          14       21.55           0		                               	;
TANKB           	       65.50           6           0          14       21.55           0		                               	;

[PIPES]
;ID              	Node1           	Node2           	Length      	Diameter    	Roughness   	MinorLoss   	Status
1002            	20              	70              	        3657         411         120           0	Open	;
1004            	20              	30              	        3657         432         120           0	Open	;
1006            	20              	110             	        3657         406         120           0	Open	;
1008            	30              	70              	        2743         323          70           0	Open	;
1010            	70              	100             	        1830         305         120           0	Open	;
1012            	70              	90              	        1830         254          70           0	Open	;
1014            	70              	60              	        1830         305          70           0	Open	;
1016            	60              	90              	        1830         254          70           0	Open	;
1018            	60              	80              	        1830         305          70           0	Open	;
1020            	80              	90              	        1830         254          70           0	Open	;
1022            	90              	150             	        1830         254          70           0	Open	;
1024            	90              	100             	        1830         254          70           0	Open	;
1026            	100             	150             	        1830         305          70           0	Open	;
1028            	80              	150             	        1830         254          90           0	Open	;
1030            	30              	60              	        1830         254         120           0	Open	;
1032            	30              	40              	        1830         254         120           0	Open	;
1034            	30              	50              	        2743         254         120           0	Open	;
1036            	40              	50              	        1830         254         120           0	Open	;
1038            	50              	80              	        1830         254         120           0	Open	;
1040            	80              	140             	        1830         254         130           0	Open	;
1042            	140             	150             	        1830         203         130           0	Open	;
1044            	150             	160             	        1830         203          90           0	Open	;
1046            	100             	160             	        1830         305          90           0	Open	;
1048            	100             	110             	        1830         203          90           0	Open	;
1050            	110             	160             	        1830         254          90           0	Open	;
1052            	110             	120             	        1830         203          90           0	Open	;
1056            	120             	130             	        1830         203         130           0	Open	;
1058            	130             	160             	        1830         254         130           0	Open	;
1060            	130             	170             	        1830         203         130           0	Open	;
1062            	140             	160             	        1830         199         130           0	Open	;
1064            	140             	170             	        3656         200         130           0	Open	;
1066            	50              	140             	        3656         203         130           0	Open	;
1078            	60              	TANKA           	       30.50         305         110           0	Open	;
1080            	160             	TANKB           	       30.50         305         110           0	Open	;
Aux_p2u         	SOURCE          	2002UpS         	           1        1600         150           0	Open	;
Aux_p2d         	2002DwS         	20              	           1        1600         150           0	Open	;
Aux_p1u         	SOURCE          	2001UpS         	           1        1600         150           0	Open	;
Aux_p1d         	2001DwS         	20              	           1        1600         150           0	Open	;
Aux_p3u         	SOURCE          	Pump3UpS        	           1        1600         150           0	Open	;
Aux_p3d         	Pump3DwS        	20              	           1        1600         150           0	Open	;

[PUMPS]
;ID              	Node1           	Node2           	Parameters
Pump2           	2002UpS         	2002DwS         	HEAD    2               	;
Pump1           	2001UpS         	2001DwS         	HEAD    1               	;
Pump3           	Pump3UpS        	Pump3DwS        	HEAD    3               	;

[VALVES]
;ID              	Node1           	Node2           	Diameter    	Type	Setting     	MinorLoss   

[TAGS]

[DEMANDS]
;Junction        	Demand      	Pattern         	Category

[STATUS]
;ID              	Status/Setting

[PATTERNS]
;ID              	Multipliers
Demand1                   0.70        0.70        0.70        0.60        0.30
Demand1                   0.60        1.10        1.20        1.20        1.40
Demand1                   1.60        1.30        1.20        1.20        1.20
Demand1                      1           1           1        0.90        0.90
Demand1                   0.90        0.70        0.70        0.70


[CURVES]
;ID              	X-Value     	Y-Value
1                            0       91.40
1                       252.50       82.30
1                       504.70       55.20
2                            0       91.40
2                       252.50       82.30
2                       504.70       55.20
3                            0       91.40
3                       252.50       82.30
3                       504.70       55.20

[CONTROLS]

[RULES]

[ENERGY]
GLOBAL EFFICIENCY         75
GLOBAL PRICE              0
DEMAND CHARGE             0

[EMITTERS]
;Junction        	Coefficient

[QUALITY]
;Node            	InitQual

[SOURCES]
;Node            	Type        	Quality     	Pattern

[REACTIONS]
ORDER BULK                1
ORDER WALL                1
ORDER TANK                1
GLOBAL BULK               0
GLOBAL WALL               0
LIMITING POTENTIAL        0
ROUGHNESS CORRELATION     0

[MIXING]
;Tank            	Model
TANKA           	MIXED       	           0
TANKB           	MIXED       	           0

[TIMES]
Duration                  24:00:00
Hydraulic Timestep        1:00:00
Quality Timestep          0:05:00
Rule Timestep             0:05:00
Pattern Timestep          1:00:00
Pattern Start             0:00:00
Report Timestep           1:00:00
Report Start              0:00:00
Start ClockTime           0:00:00
Statistic                 None

[REPORT]
SUMMARY                   YES

[OPTIONS]
Units              LPS
Headloss           H-W
Specific Gravity   1
Viscosity          1
Trials             40
Accuracy           0.001
CHECKFREQ          2
MAXCHECK           10
DAMPLIMIT          0
Unbalanced         Continue 10
Pattern            Demand1
Demand Multiplier  1
Emitter Exponent   0.5
Quality            NONE
Diffusivity        1
Tolerance          0.01

[COORDINATES]
;Node            	X-Coord           	Y-Coord
20              	              1500              1000
30              	              1800              5500
40              	              2000              7800
50              	              5000              8000
60              	              4400              5800
70              	              4400              3000
80              	              6300              6300
90              	              5900              4500
100             	              6700              3000
110             	              6700              1300
120             	              8800               100
130             	             10800              1600
140             	              9200              6300
150             	              7900              4800
160             	              9700              2800
170             	             12500              4000
2002UpS         	           751.190           521.060
2002DwS         	           905.990           620.070
2001UpS         	           554.880           784.390
2001DwS         	           734.990           902.750
Pump3UpS        	           952.140           269.410
Pump3DwS        	          1133.100           386.690
SOURCE          	           -48.020             9.890
TANKA           	          4399.080          6531.060
TANKB           	         10565.220          3616.150

[VERTICES]
;Link            	X-Coord           	Y-Coord

[LABELS]
;X-Coord             Y-Coord             Label & Anchor Node

[BACKDROP]

[END]
