[TITLE]
PROJECT NAME: ANYTOWN
PROJECT DESCRIPTION: Anytown Network, USA (Walski et al., 1987)
PROJECT CREATOR: Hugo J. Bartolín
CREATION DATE: 24-08-2002 22:33:03
NAME OF SCENARIO: Anytown
SCENARIO DESCRIPTION: Anytown Network, USA (Walski et al., 1987)

[JUNCTIONS]
;ID              	Elev        	Demand      	Pattern         
 20              	6.23        	31.51       	                	;
 30              	15.24       	12.52       	                	;
 40              	15.24       	12.52       	                	;
 50              	15.24       	31.51       	                	;
 60              	15.24       	50.9        	                	;
 70              	15.24       	31.51       	                	;
 80              	15.24       	31.51       	                	;
 90              	15.24       	63.83       	Demand1         	;
 100             	15.24       	12.52       	                	;
 110             	15.24       	12.52       	                	;
 120             	36.6        	31.51       	                	;
 130             	36.6        	12.52       	                	;
 140             	24.4        	12.52       	Demand1         	;
 150             	36.6        	12.52       	                	;
 160             	36.6        	31.51       	                	;
 170             	36.6        	12.52       	                	;
 2002UpS         	0           	0           	                	;
 2002DwS         	6.23        	0           	                	;
 2001UpS         	0           	0           	                	;
 2001DwS         	6.23        	0           	                	;
 Pump3UpS        	0           	0           	                	;
 Pump3DwS        	6.23        	0           	                	;

[RESERVOIRS]
;ID              	Head        	Pattern         
 SOURCE          	3.04        	                	;

[TANKS]
;ID              	Elevation   	InitLevel   	MinLevel    	MaxLevel    	Diameter    	MinVol      	VolCurve
 TANKA           	65.5        	6           	0           	14          	21.55       	0           	                	;
 TANKB           	65.5        	6           	0           	14          	21.55       	0           	                	;

[PIPES]
;ID              	Node1           	Node2           	Length      	Diameter    	Roughness   	MinorLoss   	Status
 1002            	20              	70              	3657        	406         	120         	0           	Open  	;
 1004            	20              	30              	3657        	406         	120         	0           	Open  	;
 1006            	20              	110             	3657        	406         	120         	0           	Open  	;
 1008            	30              	70              	2743        	305         	70          	0           	Open  	;
 1010            	70              	100             	1830        	305         	120         	0           	Open  	;
 1012            	70              	90              	1830        	254         	70          	0           	Open  	;
 1014            	70              	60              	1830        	305         	70          	0           	Open  	;
 1016            	60              	90              	1830        	254         	70          	0           	Open  	;
 1018            	60              	80              	1830        	305         	70          	0           	Open  	;
 1020            	80              	90              	1830        	254         	70          	0           	Open  	;
 1022            	90              	150             	1830        	254         	70          	0           	Open  	;
 1024            	90              	100             	1830        	254         	70          	0           	Open  	;
 1026            	100             	150             	1830        	305         	70          	0           	Open  	;
 1028            	80              	150             	1830        	254         	90          	0           	Open  	;
 1030            	30              	60              	1830        	254         	120         	0           	Open  	;
 1032            	30              	40              	1830        	254         	120         	0           	Open  	;
 1034            	30              	50              	2743        	254         	120         	0           	Open  	;
 1036            	40              	50              	1830        	254         	120         	0           	Open  	;
 1038            	50              	80              	1830        	254         	120         	0           	Open  	;
 1040            	80              	140             	1830        	254         	130         	0           	Open  	;
 1042            	140             	150             	1830        	203         	130         	0           	Open  	;
 1044            	150             	160             	1830        	203         	90          	0           	Open  	;
 1046            	100             	160             	1830        	305         	90          	0           	Open  	;
 1048            	100             	110             	1830        	203         	90          	0           	Open  	;
 1050            	110             	160             	1830        	254         	90          	0           	Open  	;
 1052            	110             	120             	1830        	203         	90          	0           	Open  	;
 1056            	120             	130             	1830        	203         	130         	0           	Open  	;
 1058            	130             	160             	1830        	254         	130         	0           	Open  	;
 1060            	130             	170             	1830        	203         	130         	0           	Open  	;
 1062 140 160 1830 199 130 0 Open;
 1064 140 170 3656 200 130 0 Open;
 1066            	50              	140             	3656        	203         	130         	0           	Open  	;
 1078            	60              	TANKA           	30.5        	305         	110         	0           	OPEN  	;
 1080            	160             	TANKB           	30.5        	305         	110         	0           	OPEN  	;
 Aux_p2u         	SOURCE          	2002UpS         	1           	1600        	150         	0           	OPEN  	;
 Aux_p2d         	2002DwS         	20              	1           	1600        	150         	0           	OPEN  	;
 Aux_p1u         	SOURCE          	2001UpS         	1           	1600        	150         	0           	OPEN  	;
 Aux_p1d         	2001DwS         	20              	1           	1600        	150         	0           	OPEN  	;
 Aux_p3u         	SOURCE          	Pump3UpS        	1           	1600        	150         	0           	OPEN  	;
 Aux_p3d         	Pump3DwS        	20              	1           	1600        	150         	0           	OPEN  	;

[PUMPS]
;ID              	Node1           	Node2           	Parameters
 Pump2           	2002UpS         	2002DwS         	HEAD 2	;
 Pump1           	2001UpS         	2001DwS         	HEAD 1	;
 Pump3           	Pump3UpS        	Pump3DwS        	HEAD 3	;

[VALVES]
;ID              	Node1           	Node2           	Diameter    	Type	Setting     	MinorLoss   

[TAGS]
 LINK 	Pump2           	PUMP
 LINK 	Pump1           	PUMP
 LINK 	Pump3           	PUMP

[DEMANDS]
;Junction        	Demand      	Pattern         	Category

[STATUS]
;ID              	Status/Setting

[PATTERNS]
;ID              	Multipliers
;Demand1
 Demand1         	0.7         	0.7         	0.7         	0.6         	0.3         	0.6         
 Demand1         	1.1         	1.2         	1.2         	1.4         	1.6         	1.3         
 Demand1         	1.2         	1.2         	1.2         	1           	1           	1           
 Demand1         	0.9         	0.9         	0.9         	0.7         	0.7         	0.7         

[CURVES]
;ID              	X-Value     	Y-Value
;PUMP:  1
 1               	0           	91.4        
 1               	252.5       	82.3        
 1               	504.7       	55.2        
;PUMP:  2
 2               	0           	91.4        
 2               	252.5       	82.3        
 2               	504.7       	55.2        
;PUMP:  3
 3               	0           	91.4        
 3               	252.5       	82.3        
 3               	504.7       	55.2        

[CONTROLS]

[RULES]

[ENERGY]
 Global Efficiency  	75
 Global Price       	0
 Demand Charge      	0

[EMITTERS]
;Junction        	Coefficient

[QUALITY]
;Node            	InitQual

[SOURCES]
;Node            	Type        	Quality     	Pattern

[REACTIONS]
;Type     	Pipe/Tank       	Coefficient


[REACTIONS]
 Order Bulk            	1
 Order Tank            	1
 Order Wall            	1
 Global Bulk           	0
 Global Wall           	0
 Limiting Potential    	0
 Roughness Correlation 	0

[MIXING]
;Tank            	Model

[TIMES]
 Duration           	24:00 
 Hydraulic Timestep 	1:00 
 Quality Timestep   	0:05 
 Pattern Timestep   	1:00 
 Pattern Start      	0:00 
 Report Timestep    	1:00 
 Report Start       	0:00 
 Start ClockTime    	12 am
 Statistic          	NONE

[REPORT]
 Status             	No
 Summary            	No
 Page               	0

[OPTIONS]
 Units              	LPS
 Headloss           	H-W
 Specific Gravity   	1
 Viscosity          	1
 Trials             	40
 Accuracy           	0.001
 Unbalanced         	Continue 10
 Pattern            	Demand1
 Demand Multiplier  	1.0
 Emitter Exponent   	0.5
 Quality            	None mg/L
 Diffusivity        	1
 Tolerance          	0.01

[COORDINATES]
;Node            	X-Coord         	Y-Coord
 20              	1500.00         	1000.00         
 30              	1800.00         	5500.00         
 40              	2000.00         	7800.00         
 50              	5000.00         	8000.00         
 60              	4400.00         	5800.00         
 70              	4400.00         	3000.00         
 80              	6300.00         	6300.00         
 90              	5900.00         	4500.00         
 100             	6700.00         	3000.00         
 110             	6700.00         	1300.00         
 120             	8800.00         	100.00          
 130             	10800.00        	1600.00         
 140             	9200.00         	6300.00         
 150             	7900.00         	4800.00         
 160             	9700.00         	2800.00         
 170             	12500.00        	4000.00         
 2002UpS         	751.19          	521.06          
 2002DwS         	905.99          	620.07          
 2001UpS         	554.88          	784.39          
 2001DwS         	734.99          	902.75          
 Pump3UpS        	952.14          	269.41          
 Pump3DwS        	1133.10         	386.69          
 SOURCE          	-48.02          	9.89            
 TANKA           	4399.08         	6531.06         
 TANKB           	10565.22        	3616.15         

[VERTICES]
;Link            	X-Coord         	Y-Coord
 Aux_p1u         	-11.87          	411.96          
 Aux_p1d         	1092.35         	1137.58         
 Aux_p3u         	362.78          	-112.55         
 Aux_p3d         	1494.60         	620.97          

[LABELS]
;X-Coord           Y-Coord          Label & Anchor Node

[BACKDROP]
 DIMENSIONS     	-48.02          	-943.06         	12500.00        	8830.52         
 UNITS          	Meters
 FILE           	
 OFFSET         	0.00            	0.00            

[END]